C11203-P103
     RDKit          3D

 47 49  0  0  0  0  0  0  0  0999 V2000
   12.2586   -4.3043   12.3510 C   0  0  0  0  0  0  0  0  0  0  0  0
   11.6233   -5.3037   11.3987 C   0  0  0  0  0  0  0  0  0  0  0  0
   12.0231   -6.4096   11.4864 O   0  0  0  0  0  0  0  0  0  0  0  0
   10.5249   -4.7492   10.6038 N   0  0  0  0  0  0  0  0  0  0  0  0
    9.1116   -5.6686    9.4455 C   0  0  0  0  0  0  0  0  0  0  0  0
   10.8048   -4.7183    8.6209 C   0  0  0  0  0  0  0  0  0  0  0  0
    7.0267   -5.9629    8.8801 C   0  0  0  0  0  0  0  0  0  0  0  0
    6.3271   -5.0524    8.4624 O   0  0  0  0  0  0  0  0  0  0  0  0
    6.5189   -7.8303    8.9683 N   0  0  0  0  0  0  0  0  0  0  0  0
    4.9702   -8.7609    8.3257 C   0  0  0  0  0  0  0  0  0  0  0  0
    3.7930   -8.9252    6.9769 C   0  0  0  0  0  0  0  0  0  0  0  0
    2.2543   -9.7597    6.6226 C   0  0  0  0  0  0  0  0  0  0  0  0
    1.8509  -10.9374    7.3625 C   0  0  0  0  0  0  0  0  0  0  0  0
    1.1550  -12.2426    6.6401 N   0  0  0  0  0  0  0  0  0  0  0  0
    1.4377  -13.5746    7.4093 C   0  0  0  0  0  0  0  0  0  0  0  0
    1.5015  -15.3623    6.8420 C   0  0  0  0  0  0  0  0  0  0  0  0
    2.9289  -16.1861    6.9236 C   0  0  0  0  0  0  0  0  0  0  0  0
    2.9814  -17.6669    6.5441 C   0  0  0  0  0  0  0  0  0  0  0  0
    2.1371  -18.4263    7.4320 N   0  0  0  0  0  0  0  0  0  0  0  0
    0.7914  -17.9246    7.2505 C   0  0  0  0  0  0  0  0  0  0  0  0
    0.6764  -16.4354    7.6119 C   0  0  0  0  0  0  0  0  0  0  0  0
    2.3800  -12.9436    8.5970 N   0  0  0  0  0  0  0  0  0  0  0  0
    2.8952  -11.3663    8.4290 C   0  0  0  0  0  0  0  0  0  0  0  0
    4.3980  -10.4092    8.7792 C   0  0  0  0  0  0  0  0  0  0  0  0
   12.0244   -4.5143   13.3764 H   0  0  0  0  0  0  0  0  0  0  0  0
   11.5585   -3.4680   12.6035 H   0  0  0  0  0  0  0  0  0  0  0  0
   13.2942   -4.0157   12.1363 H   0  0  0  0  0  0  0  0  0  0  0  0
   10.4142   -3.8086   10.8291 H   0  0  0  0  0  0  0  0  0  0  0  0
    9.1711   -6.8704    9.6311 H   0  0  0  0  0  0  0  0  0  0  0  0
   11.7859   -4.9742    9.0678 H   0  0  0  0  0  0  0  0  0  0  0  0
   11.1485   -4.8473    7.5414 H   0  0  0  0  0  0  0  0  0  0  0  0
   10.6244   -3.6513    8.3872 H   0  0  0  0  0  0  0  0  0  0  0  0
    7.2951   -8.3799    9.2669 H   0  0  0  0  0  0  0  0  0  0  0  0
    4.3158   -8.6651    5.9427 H   0  0  0  0  0  0  0  0  0  0  0  0
    1.8767   -9.6522    5.6020 H   0  0  0  0  0  0  0  0  0  0  0  0
    0.8259  -12.2103    5.6856 H   0  0  0  0  0  0  0  0  0  0  0  0
    1.1908  -15.2885    5.7939 H   0  0  0  0  0  0  0  0  0  0  0  0
    3.7047  -15.7208    6.3263 H   0  0  0  0  0  0  0  0  0  0  0  0
    3.2721  -16.1543    7.9736 H   0  0  0  0  0  0  0  0  0  0  0  0
    4.0128  -18.0236    6.6449 H   0  0  0  0  0  0  0  0  0  0  0  0
    2.6832  -17.8472    5.5098 H   0  0  0  0  0  0  0  0  0  0  0  0
    2.1565  -19.4156    7.1854 H   0  0  0  0  0  0  0  0  0  0  0  0
    0.1176  -18.5013    7.8917 H   0  0  0  0  0  0  0  0  0  0  0  0
    0.4486  -18.0903    6.2202 H   0  0  0  0  0  0  0  0  0  0  0  0
    0.8579  -16.3403    8.6899 H   0  0  0  0  0  0  0  0  0  0  0  0
   -0.3532  -16.3211    7.3762 H   0  0  0  0  0  0  0  0  0  0  0  0
    5.2703  -11.0605    8.6694 H   0  0  0  0  0  0  0  0  0  0  0  0
  1  2  1  0
  2  3  2  0
  2  4  1  0
  4  5  1  0
  5  6  1  0
  5  7  1  0
  7  8  2  0
  7  9  1  0
  9 10  1  0
 10 11  2  0
 11 12  1  0
 12 13  2  0
 13 14  1  0
 14 15  1  0
 15 16  1  0
 16 17  1  0
 17 18  1  0
 18 19  1  0
 19 20  1  0
 20 21  1  0
 15 22  2  0
 22 23  1  0
 23 24  2  0
 24 10  1  0
 23 13  1  0
 21 16  1  0
  1 25  1  0
  1 26  1  0
  1 27  1  0
  4 28  1  0
  5 29  1  0
  6 30  1  0
  6 31  1  0
  6 32  1  0
  9 33  1  0
 11 34  1  0
 12 35  1  0
 14 36  1  0
 16 37  1  0
 17 38  1  0
 17 39  1  0
 18 40  1  0
 18 41  1  0
 19 42  1  0
 20 43  1  0
 20 44  1  0
 21 45  1  0
 21 46  1  0
 24 47  1  0
M  END
>  <Energy>  (1) 
1037.907266807953

>  <compound_id>  (1) 
11203

>  <target_id>  (1) 
1

>  <reference_id>  (1) 
103

>  <inspiration_ids>  (1) 
[103, 85]

>  <energy_score>  (1) 
1006.1059603175977

>  <distance_score>  (1) 
6.532783918698992

>  <path>  (1) 
/opt/xchem-fragalysis-2/maxwin/BulkDock/SCRATCH/511020/C11203-P103/C11203-P103.minimised.mol

>  <scratch_subdir>  (1) 
/opt/xchem-fragalysis-2/maxwin/BulkDock/SCRATCH/511020/C11203-P103

>  <fragmenstein_runtime>  (1) 
42.64211893081665

>  <fragmenstein_outcome>  (1) 
too moved

>  <fragmenstein_mode>  (1) 
expansion

>  <fragmenstein_error>  (1) 


$$$$
C11203-P85
     RDKit          3D

 47 49  0  0  0  0  0  0  0  0999 V2000
   11.6116   -3.0270   14.5670 C   0  0  0  0  0  0  0  0  0  0  0  0
   12.6657   -3.6332   13.6826 C   0  0  0  0  0  0  0  0  0  0  0  0
   13.7968   -3.6009   14.0974 O   0  0  0  0  0  0  0  0  0  0  0  0
   12.0982   -4.2659   12.4540 N   0  0  0  0  0  0  0  0  0  0  0  0
   12.8950   -5.0980   11.0995 C   0  0  0  0  0  0  0  0  0  0  0  0
   14.2937   -3.7019   11.1691 C   0  0  0  0  0  0  0  0  0  0  0  0
   11.3051   -5.7267   10.4197 C   0  0  0  0  0  0  0  0  0  0  0  0
   10.6788   -4.8026    9.9318 O   0  0  0  0  0  0  0  0  0  0  0  0
   10.3877   -7.5270   10.5423 N   0  0  0  0  0  0  0  0  0  0  0  0
    8.5250   -8.1062   10.1620 C   0  0  0  0  0  0  0  0  0  0  0  0
    6.8668   -7.5846    9.7460 C   0  0  0  0  0  0  0  0  0  0  0  0
    5.5453   -8.4766    8.7401 C   0  0  0  0  0  0  0  0  0  0  0  0
    5.3181   -9.9123    8.4430 C   0  0  0  0  0  0  0  0  0  0  0  0
    4.3514  -10.9171    8.0459 N   0  0  0  0  0  0  0  0  0  0  0  0
    4.9575  -12.1492    8.1030 C   0  0  0  0  0  0  0  0  0  0  0  0
    4.5148  -13.5289    7.6707 C   0  0  0  0  0  0  0  0  0  0  0  0
    5.3330  -14.5936    8.4412 C   0  0  0  0  0  0  0  0  0  0  0  0
    4.8038  -16.0202    8.3581 C   0  0  0  0  0  0  0  0  0  0  0  0
    3.3691  -16.1003    8.5640 N   0  0  0  0  0  0  0  0  0  0  0  0
    2.6741  -15.2522    7.6013 C   0  0  0  0  0  0  0  0  0  0  0  0
    3.0318  -13.7826    7.8227 C   0  0  0  0  0  0  0  0  0  0  0  0
    6.2062  -11.8594    8.3511 N   0  0  0  0  0  0  0  0  0  0  0  0
    6.5202  -10.4654    8.5199 C   0  0  0  0  0  0  0  0  0  0  0  0
    7.7993   -9.4968    9.1049 C   0  0  0  0  0  0  0  0  0  0  0  0
   11.2574   -2.0966   14.1370 H   0  0  0  0  0  0  0  0  0  0  0  0
   10.8219   -3.7404   14.7812 H   0  0  0  0  0  0  0  0  0  0  0  0
   12.0639   -2.7753   15.5338 H   0  0  0  0  0  0  0  0  0  0  0  0
   11.1217   -4.0236   12.3764 H   0  0  0  0  0  0  0  0  0  0  0  0
   12.7430   -4.6038   10.1616 H   0  0  0  0  0  0  0  0  0  0  0  0
   14.6069   -3.2187   10.2407 H   0  0  0  0  0  0  0  0  0  0  0  0
   14.1507   -2.9240   11.9237 H   0  0  0  0  0  0  0  0  0  0  0  0
   15.3315   -4.0848   11.3242 H   0  0  0  0  0  0  0  0  0  0  0  0
   10.9441   -8.1176   11.0026 H   0  0  0  0  0  0  0  0  0  0  0  0
    6.6203   -6.5206    9.7708 H   0  0  0  0  0  0  0  0  0  0  0  0
    5.7189   -8.3284    7.6635 H   0  0  0  0  0  0  0  0  0  0  0  0
    3.4126  -10.7558    7.7061 H   0  0  0  0  0  0  0  0  0  0  0  0
    4.7673  -13.6293    6.6058 H   0  0  0  0  0  0  0  0  0  0  0  0
    6.3606  -14.6009    8.0736 H   0  0  0  0  0  0  0  0  0  0  0  0
    5.4145  -14.3017    9.4900 H   0  0  0  0  0  0  0  0  0  0  0  0
    5.3078  -16.6329    9.1136 H   0  0  0  0  0  0  0  0  0  0  0  0
    5.0658  -16.4535    7.3937 H   0  0  0  0  0  0  0  0  0  0  0  0
    3.0540  -17.0646    8.4334 H   0  0  0  0  0  0  0  0  0  0  0  0
    1.6009  -15.4099    7.7033 H   0  0  0  0  0  0  0  0  0  0  0  0
    2.9181  -15.5538    6.5824 H   0  0  0  0  0  0  0  0  0  0  0  0
    2.7576  -13.4792    8.8321 H   0  0  0  0  0  0  0  0  0  0  0  0
    2.4661  -13.1552    7.1237 H   0  0  0  0  0  0  0  0  0  0  0  0
    8.5971  -10.2568    8.7629 H   0  0  0  0  0  0  0  0  0  0  0  0
  1  2  1  0
  2  3  2  0
  2  4  1  0
  4  5  1  0
  5  6  1  0
  5  7  1  0
  7  8  2  0
  7  9  1  0
  9 10  1  0
 10 11  2  0
 11 12  1  0
 12 13  2  0
 13 14  1  0
 14 15  1  0
 15 16  1  0
 16 17  1  0
 17 18  1  0
 18 19  1  0
 19 20  1  0
 20 21  1  0
 15 22  2  0
 22 23  1  0
 23 24  2  0
 24 10  1  0
 23 13  1  0
 21 16  1  0
  1 25  1  0
  1 26  1  0
  1 27  1  0
  4 28  1  0
  5 29  1  0
  6 30  1  0
  6 31  1  0
  6 32  1  0
  9 33  1  0
 11 34  1  0
 12 35  1  0
 14 36  1  0
 16 37  1  0
 17 38  1  0
 17 39  1  0
 18 40  1  0
 18 41  1  0
 19 42  1  0
 20 43  1  0
 20 44  1  0
 21 45  1  0
 21 46  1  0
 24 47  1  0
M  END
>  <Energy>  (2) 
853.65345101846731

>  <compound_id>  (2) 
11203

>  <target_id>  (2) 
1

>  <reference_id>  (2) 
85

>  <inspiration_ids>  (2) 
[103, 85]

>  <energy_score>  (2) 
821.8521445281137

>  <distance_score>  (2) 
5.858569853046005

>  <path>  (2) 
/opt/xchem-fragalysis-2/maxwin/BulkDock/SCRATCH/511020/C11203-P85/C11203-P85.minimised.mol

>  <scratch_subdir>  (2) 
/opt/xchem-fragalysis-2/maxwin/BulkDock/SCRATCH/511020/C11203-P85

>  <fragmenstein_runtime>  (2) 
51.61574196815491

>  <fragmenstein_outcome>  (2) 
too moved

>  <fragmenstein_mode>  (2) 
expansion

>  <fragmenstein_error>  (2) 


$$$$
C51597-P103
     RDKit          3D

 47 49  0  0  0  0  0  0  0  0999 V2000
   12.4584  -10.9013    6.0146 O   0  0  0  0  0  0  0  0  0  0  0  0
   11.5441  -10.3340    6.5437 C   0  0  0  0  0  0  0  0  0  0  0  0
   10.2504  -11.1578    6.9110 C   0  0  0  0  0  0  0  0  0  0  0  0
   10.3848  -12.6979    6.7438 C   0  0  0  0  0  0  0  0  0  0  0  0
    9.3461  -13.5483    7.5156 C   0  0  0  0  0  0  0  0  0  0  0  0
    9.5488  -14.9955    7.4468 N   0  0  0  0  0  0  0  0  0  0  0  0
   10.5589  -15.6561    6.7962 C   0  0  0  0  0  0  0  0  0  0  0  0
   10.3521  -16.9537    6.7407 N   0  0  0  0  0  0  0  0  0  0  0  0
    9.1683  -17.1543    7.3968 C   0  0  0  0  0  0  0  0  0  0  0  0
    8.4210  -18.3330    7.5499 C   0  0  0  0  0  0  0  0  0  0  0  0
    7.1718  -18.2718    8.1751 C   0  0  0  0  0  0  0  0  0  0  0  0
    6.7121  -17.0714    8.7015 C   0  0  0  0  0  0  0  0  0  0  0  0
    7.4943  -15.9072    8.6438 C   0  0  0  0  0  0  0  0  0  0  0  0
    8.6779  -15.9594    7.9120 C   0  0  0  0  0  0  0  0  0  0  0  0
   11.4162   -8.9576    6.9928 N   0  0  0  0  0  0  0  0  0  0  0  0
   12.3253   -7.8090    6.8537 C   0  0  0  0  0  0  0  0  0  0  0  0
   12.2424   -6.7303    7.9894 C   0  0  0  0  0  0  0  0  0  0  0  0
   13.4585   -5.7601    8.0049 C   0  0  0  0  0  0  0  0  0  0  0  0
   13.9485   -5.5245    9.4486 C   0  0  0  0  0  0  0  0  0  0  0  0
   15.3164   -4.3175    9.6148 S   0  0  0  0  0  0  0  0  0  0  0  0
   15.5375   -3.8836    7.8791 C   0  0  0  0  0  0  0  0  0  0  0  0
   14.2116   -3.5545    7.1916 C   0  0  0  0  0  0  0  0  0  0  0  0
   13.1073   -4.5175    7.3047 N   0  0  0  0  0  0  0  0  0  0  0  0
    9.4274  -10.7953    6.2853 H   0  0  0  0  0  0  0  0  0  0  0  0
   10.0049  -10.9619    7.9572 H   0  0  0  0  0  0  0  0  0  0  0  0
   10.3363  -12.9362    5.6736 H   0  0  0  0  0  0  0  0  0  0  0  0
   11.3888  -12.9898    7.0745 H   0  0  0  0  0  0  0  0  0  0  0  0
    9.3696  -13.2910    8.5773 H   0  0  0  0  0  0  0  0  0  0  0  0
    8.3435  -13.3472    7.1237 H   0  0  0  0  0  0  0  0  0  0  0  0
   11.4095  -15.1547    6.3539 H   0  0  0  0  0  0  0  0  0  0  0  0
    8.8000  -19.2643    7.1435 H   0  0  0  0  0  0  0  0  0  0  0  0
    6.5688  -19.1724    8.2620 H   0  0  0  0  0  0  0  0  0  0  0  0
    5.7386  -17.0438    9.1875 H   0  0  0  0  0  0  0  0  0  0  0  0
    7.1667  -14.9758    9.0938 H   0  0  0  0  0  0  0  0  0  0  0  0
   10.4596   -8.8019    7.3248 H   0  0  0  0  0  0  0  0  0  0  0  0
   12.1057   -7.3442    5.8869 H   0  0  0  0  0  0  0  0  0  0  0  0
   13.3370   -8.2250    6.7986 H   0  0  0  0  0  0  0  0  0  0  0  0
   11.3096   -6.1683    7.8754 H   0  0  0  0  0  0  0  0  0  0  0  0
   12.1517   -7.2196    8.9595 H   0  0  0  0  0  0  0  0  0  0  0  0
   14.2706   -6.2491    7.4511 H   0  0  0  0  0  0  0  0  0  0  0  0
   14.3234   -6.4774    9.8289 H   0  0  0  0  0  0  0  0  0  0  0  0
   13.1286   -5.2186   10.1031 H   0  0  0  0  0  0  0  0  0  0  0  0
   16.2071   -3.0192    7.8195 H   0  0  0  0  0  0  0  0  0  0  0  0
   16.0430   -4.7111    7.3696 H   0  0  0  0  0  0  0  0  0  0  0  0
   14.4133   -3.4200    6.1220 H   0  0  0  0  0  0  0  0  0  0  0  0
   13.8637   -2.5773    7.5376 H   0  0  0  0  0  0  0  0  0  0  0  0
   12.3225   -4.0700    7.7764 H   0  0  0  0  0  0  0  0  0  0  0  0
  1  2  2  0
  2  3  1  0
  3  4  1  0
  4  5  1  0
  5  6  1  0
  6  7  1  0
  7  8  2  0
  8  9  1  0
  9 10  2  0
 10 11  1  0
 11 12  2  0
 12 13  1  0
 13 14  2  0
  2 15  1  0
 15 16  1  0
 16 17  1  0
 17 18  1  0
 18 19  1  0
 19 20  1  0
 20 21  1  0
 21 22  1  0
 22 23  1  0
 14  6  1  0
 23 18  1  0
 14  9  1  0
  3 24  1  0
  3 25  1  0
  4 26  1  0
  4 27  1  0
  5 28  1  0
  5 29  1  0
  7 30  1  0
 10 31  1  0
 11 32  1  0
 12 33  1  0
 13 34  1  0
 15 35  1  0
 16 36  1  0
 16 37  1  0
 17 38  1  0
 17 39  1  0
 18 40  1  0
 19 41  1  0
 19 42  1  0
 21 43  1  0
 21 44  1  0
 22 45  1  0
 22 46  1  0
 23 47  1  0
M  END
>  <Energy>  (3) 
59.398328202429184

>  <compound_id>  (3) 
51597

>  <target_id>  (3) 
1

>  <reference_id>  (3) 
103

>  <inspiration_ids>  (3) 
[103, 85]

>  <energy_score>  (3) 
-5.913974995482931

>  <distance_score>  (3) 
9.578378939914067

>  <path>  (3) 
/opt/xchem-fragalysis-2/maxwin/BulkDock/SCRATCH/511020/C51597-P103/C51597-P103.minimised.mol

>  <scratch_subdir>  (3) 
/opt/xchem-fragalysis-2/maxwin/BulkDock/SCRATCH/511020/C51597-P103

>  <fragmenstein_runtime>  (3) 
20.303690433502197

>  <fragmenstein_outcome>  (3) 
too moved

>  <fragmenstein_mode>  (3) 
expansion

>  <fragmenstein_error>  (3) 


$$$$
C51597-P85
     RDKit          3D

 47 49  0  0  0  0  0  0  0  0999 V2000
   -0.8341   -9.2328   10.4461 O   0  0  0  0  0  0  0  0  0  0  0  0
    0.2902   -9.0239   10.8277 C   0  0  0  0  0  0  0  0  0  0  0  0
    1.2355  -10.5185   11.1170 C   0  0  0  0  0  0  0  0  0  0  0  0
    2.7432  -11.1190   10.3675 C   0  0  0  0  0  0  0  0  0  0  0  0
    3.3286  -12.3671    9.5436 C   0  0  0  0  0  0  0  0  0  0  0  0
    3.5145  -12.4485    8.0902 N   0  0  0  0  0  0  0  0  0  0  0  0
    3.1947  -11.5014    7.1639 C   0  0  0  0  0  0  0  0  0  0  0  0
    2.4524  -11.9929    6.2055 N   0  0  0  0  0  0  0  0  0  0  0  0
    2.3776  -13.3259    6.4839 C   0  0  0  0  0  0  0  0  0  0  0  0
    1.5437  -14.3033    5.9569 C   0  0  0  0  0  0  0  0  0  0  0  0
    1.6443  -15.6200    6.4197 C   0  0  0  0  0  0  0  0  0  0  0  0
    2.5944  -15.9649    7.3787 C   0  0  0  0  0  0  0  0  0  0  0  0
    3.4312  -14.9999    7.9387 C   0  0  0  0  0  0  0  0  0  0  0  0
    3.2506  -13.6818    7.4971 C   0  0  0  0  0  0  0  0  0  0  0  0
    0.9661   -7.7501   11.1836 N   0  0  0  0  0  0  0  0  0  0  0  0
    0.5020   -6.3360   11.0876 C   0  0  0  0  0  0  0  0  0  0  0  0
    1.0978   -5.2811   12.1603 C   0  0  0  0  0  0  0  0  0  0  0  0
    2.4264   -4.4548   11.9509 C   0  0  0  0  0  0  0  0  0  0  0  0
    2.4359   -3.5645   10.6819 C   0  0  0  0  0  0  0  0  0  0  0  0
    1.9186   -1.8267   10.9386 S   0  0  0  0  0  0  0  0  0  0  0  0
    3.0941   -1.3606   12.2523 C   0  0  0  0  0  0  0  0  0  0  0  0
    3.6961   -2.5748   12.9449 C   0  0  0  0  0  0  0  0  0  0  0  0
    2.7308   -3.6741   13.1916 N   0  0  0  0  0  0  0  0  0  0  0  0
    0.4207  -11.2541   11.1049 H   0  0  0  0  0  0  0  0  0  0  0  0
    1.3670  -10.6947   12.1683 H   0  0  0  0  0  0  0  0  0  0  0  0
    2.4778  -10.7871    9.4051 H   0  0  0  0  0  0  0  0  0  0  0  0
    3.5666  -10.5757   10.8047 H   0  0  0  0  0  0  0  0  0  0  0  0
    2.5776  -13.1266    9.5949 H   0  0  0  0  0  0  0  0  0  0  0  0
    4.2514  -12.7527    9.9617 H   0  0  0  0  0  0  0  0  0  0  0  0
    3.4579  -10.4635    7.2437 H   0  0  0  0  0  0  0  0  0  0  0  0
    0.8406  -13.9993    5.2046 H   0  0  0  0  0  0  0  0  0  0  0  0
    1.0030  -16.3911    5.9990 H   0  0  0  0  0  0  0  0  0  0  0  0
    2.6622  -17.0007    7.7058 H   0  0  0  0  0  0  0  0  0  0  0  0
    4.1049  -15.2492    8.7483 H   0  0  0  0  0  0  0  0  0  0  0  0
    1.9224   -7.9334   11.3808 H   0  0  0  0  0  0  0  0  0  0  0  0
   -0.5847   -6.3777   11.2235 H   0  0  0  0  0  0  0  0  0  0  0  0
    0.6822   -5.9780   10.0738 H   0  0  0  0  0  0  0  0  0  0  0  0
    0.2999   -4.5328   12.2767 H   0  0  0  0  0  0  0  0  0  0  0  0
    1.1556   -5.7974   13.1262 H   0  0  0  0  0  0  0  0  0  0  0  0
    3.2324   -5.1857   11.8581 H   0  0  0  0  0  0  0  0  0  0  0  0
    1.7981   -3.9870    9.9010 H   0  0  0  0  0  0  0  0  0  0  0  0
    3.4520   -3.5163   10.2743 H   0  0  0  0  0  0  0  0  0  0  0  0
    3.8831   -0.7353   11.8224 H   0  0  0  0  0  0  0  0  0  0  0  0
    2.5436   -0.7482   12.9742 H   0  0  0  0  0  0  0  0  0  0  0  0
    4.1031   -2.2473   13.9088 H   0  0  0  0  0  0  0  0  0  0  0  0
    4.5446   -2.9331   12.3492 H   0  0  0  0  0  0  0  0  0  0  0  0
    1.8605   -3.2436   13.5139 H   0  0  0  0  0  0  0  0  0  0  0  0
  1  2  2  0
  2  3  1  0
  3  4  1  0
  4  5  1  0
  5  6  1  0
  6  7  1  0
  7  8  2  0
  8  9  1  0
  9 10  2  0
 10 11  1  0
 11 12  2  0
 12 13  1  0
 13 14  2  0
  2 15  1  0
 15 16  1  0
 16 17  1  0
 17 18  1  0
 18 19  1  0
 19 20  1  0
 20 21  1  0
 21 22  1  0
 22 23  1  0
 14  6  1  0
 23 18  1  0
 14  9  1  0
  3 24  1  0
  3 25  1  0
  4 26  1  0
  4 27  1  0
  5 28  1  0
  5 29  1  0
  7 30  1  0
 10 31  1  0
 11 32  1  0
 12 33  1  0
 13 34  1  0
 15 35  1  0
 16 36  1  0
 16 37  1  0
 17 38  1  0
 17 39  1  0
 18 40  1  0
 19 41  1  0
 19 42  1  0
 21 43  1  0
 21 44  1  0
 22 45  1  0
 22 46  1  0
 23 47  1  0
M  END
>  <Energy>  (4) 
180.86016487458934

>  <compound_id>  (4) 
51597

>  <target_id>  (4) 
1

>  <reference_id>  (4) 
85

>  <inspiration_ids>  (4) 
[103, 85]

>  <energy_score>  (4) 
115.54786167667544

>  <distance_score>  (4) 
9.589084341994944

>  <path>  (4) 
/opt/xchem-fragalysis-2/maxwin/BulkDock/SCRATCH/511020/C51597-P85/C51597-P85.minimised.mol

>  <scratch_subdir>  (4) 
/opt/xchem-fragalysis-2/maxwin/BulkDock/SCRATCH/511020/C51597-P85

>  <fragmenstein_runtime>  (4) 
26.296278476715088

>  <fragmenstein_outcome>  (4) 
too moved

>  <fragmenstein_mode>  (4) 
expansion

>  <fragmenstein_error>  (4) 


$$$$
C17984-P7
     RDKit          3D

 38 39  0  0  0  0  0  0  0  0999 V2000
   -4.1454   -3.2000   33.0978 C   0  0  0  0  0  0  0  0  0  0  0  0
   -4.4195   -1.6838   33.1194 C   0  0  0  0  0  0  0  0  0  0  0  0
   -4.3637   -1.2225   34.5908 C   0  0  0  0  0  0  0  0  0  0  0  0
   -5.7849   -1.4517   32.4841 C   0  0  0  0  0  0  0  0  0  0  0  0
   -6.0618   -1.6259   31.3044 O   0  0  0  0  0  0  0  0  0  0  0  0
   -6.7579   -1.0779   33.3418 O   0  0  0  0  0  0  0  0  0  0  0  0
   -3.4486   -0.9255   32.3233 N   0  0  0  0  0  0  0  0  0  0  0  0
   -2.5388   -1.3892   31.4047 C   0  0  0  0  0  0  0  0  0  0  0  0
   -1.7863   -0.3109   30.9974 C   0  0  0  0  0  0  0  0  0  0  0  0
   -0.7088   -0.2992   30.1344 N   0  0  0  0  0  0  0  0  0  0  0  0
   -0.1070   -1.3639   29.3454 C   0  0  0  0  0  0  0  0  0  0  0  0
   -0.4435   -2.5048   29.1839 O   0  0  0  0  0  0  0  0  0  0  0  0
    1.1428   -0.8074   28.6146 C   0  0  0  0  0  0  0  0  0  0  0  0
    1.9960   -1.9116   27.9724 C   0  0  0  0  0  0  0  0  0  0  0  0
    3.1835   -1.4043   27.1971 C   0  0  0  0  0  0  0  0  0  0  0  0
    4.1939   -0.7127   27.6854 N   0  0  0  0  0  0  0  0  0  0  0  0
    5.1150   -0.6286   26.6742 C   0  0  0  0  0  0  0  0  0  0  0  0
    4.6350   -1.2155   25.5354 C   0  0  0  0  0  0  0  0  0  0  0  0
    3.4047   -1.6976   25.8706 N   0  0  0  0  0  0  0  0  0  0  0  0
   -2.3647    0.7777   31.6906 C   0  0  0  0  0  0  0  0  0  0  0  0
   -3.3802    0.4172   32.4784 N   0  0  0  0  0  0  0  0  0  0  0  0
   -4.8460   -3.7382   33.7444 H   0  0  0  0  0  0  0  0  0  0  0  0
   -3.1322   -3.4284   33.4484 H   0  0  0  0  0  0  0  0  0  0  0  0
   -4.2567   -3.6221   32.0922 H   0  0  0  0  0  0  0  0  0  0  0  0
   -3.3549   -1.3408   35.0037 H   0  0  0  0  0  0  0  0  0  0  0  0
   -4.6462   -0.1692   34.7039 H   0  0  0  0  0  0  0  0  0  0  0  0
   -5.0505   -1.8009   35.2167 H   0  0  0  0  0  0  0  0  0  0  0  0
   -7.5280   -0.9088   32.7576 H   0  0  0  0  0  0  0  0  0  0  0  0
   -2.4664   -2.4347   31.1413 H   0  0  0  0  0  0  0  0  0  0  0  0
   -0.1997    0.5622   29.9719 H   0  0  0  0  0  0  0  0  0  0  0  0
    1.7529   -0.2473   29.3335 H   0  0  0  0  0  0  0  0  0  0  0  0
    0.7946   -0.1078   27.8453 H   0  0  0  0  0  0  0  0  0  0  0  0
    2.3709   -2.5750   28.7627 H   0  0  0  0  0  0  0  0  0  0  0  0
    1.3712   -2.5394   27.3344 H   0  0  0  0  0  0  0  0  0  0  0  0
    6.0687   -0.1510   26.8415 H   0  0  0  0  0  0  0  0  0  0  0  0
    5.0373   -1.3586   24.5494 H   0  0  0  0  0  0  0  0  0  0  0  0
    2.7675   -2.1939   25.2558 H   0  0  0  0  0  0  0  0  0  0  0  0
   -2.0826    1.8217   31.6559 H   0  0  0  0  0  0  0  0  0  0  0  0
  1  2  1  0
  2  3  1  0
  2  4  1  0
  4  5  2  0
  4  6  1  0
  2  7  1  0
  7  8  1  0
  8  9  2  0
  9 10  1  0
 10 11  1  0
 11 12  2  0
 11 13  1  0
 13 14  1  0
 14 15  1  0
 15 16  2  0
 16 17  1  0
 17 18  2  0
 18 19  1  0
  9 20  1  0
 20 21  2  0
 21  7  1  0
 19 15  1  0
  1 22  1  0
  1 23  1  0
  1 24  1  0
  3 25  1  0
  3 26  1  0
  3 27  1  0
  6 28  1  0
  8 29  1  0
 10 30  1  0
 13 31  1  0
 13 32  1  0
 14 33  1  0
 14 34  1  0
 17 35  1  0
 18 36  1  0
 19 37  1  0
 20 38  1  0
M  END
>  <Energy>  (5) 
-6.4752562210306648

>  <compound_id>  (5) 
17984

>  <target_id>  (5) 
1

>  <reference_id>  (5) 
7

>  <inspiration_ids>  (5) 
[7, 114]

>  <energy_score>  (5) 
-37.08948713499035

>  <distance_score>  (5) 
11.825883122253169

>  <path>  (5) 
/opt/xchem-fragalysis-2/maxwin/BulkDock/SCRATCH/511020/C17984-P7/C17984-P7.minimised.mol

>  <scratch_subdir>  (5) 
/opt/xchem-fragalysis-2/maxwin/BulkDock/SCRATCH/511020/C17984-P7

>  <fragmenstein_runtime>  (5) 
9.891092777252197

>  <fragmenstein_outcome>  (5) 
too moved

>  <fragmenstein_mode>  (5) 
expansion

>  <fragmenstein_error>  (5) 


$$$$
C17984-P114
     RDKit          3D

 38 39  0  0  0  0  0  0  0  0999 V2000
   -6.1306   -0.4029   32.9172 C   0  0  0  0  0  0  0  0  0  0  0  0
   -4.6542   -0.0160   33.1413 C   0  0  0  0  0  0  0  0  0  0  0  0
   -4.5239    1.5084   32.9605 C   0  0  0  0  0  0  0  0  0  0  0  0
   -4.1936   -0.3180   34.5652 C   0  0  0  0  0  0  0  0  0  0  0  0
   -3.0383   -0.3701   34.9635 O   0  0  0  0  0  0  0  0  0  0  0  0
   -5.1871   -0.4445   35.4736 O   0  0  0  0  0  0  0  0  0  0  0  0
   -3.7919   -0.7680   32.2188 N   0  0  0  0  0  0  0  0  0  0  0  0
   -2.6998   -0.3240   31.5101 C   0  0  0  0  0  0  0  0  0  0  0  0
   -2.1363   -1.4160   30.8887 C   0  0  0  0  0  0  0  0  0  0  0  0
   -0.9997   -1.4584   30.0993 N   0  0  0  0  0  0  0  0  0  0  0  0
   -0.0876   -0.4007   29.6801 C   0  0  0  0  0  0  0  0  0  0  0  0
   -0.1357    0.7863   29.8483 O   0  0  0  0  0  0  0  0  0  0  0  0
    1.0663   -1.0170   28.8446 C   0  0  0  0  0  0  0  0  0  0  0  0
    2.1310    0.0190   28.4272 C   0  0  0  0  0  0  0  0  0  0  0  0
    3.1851   -0.5255   27.4949 C   0  0  0  0  0  0  0  0  0  0  0  0
    2.9733   -1.1609   26.3659 N   0  0  0  0  0  0  0  0  0  0  0  0
    4.2039   -1.4438   25.8371 C   0  0  0  0  0  0  0  0  0  0  0  0
    5.1938   -0.9952   26.6754 C   0  0  0  0  0  0  0  0  0  0  0  0
    4.5382   -0.3735   27.6977 N   0  0  0  0  0  0  0  0  0  0  0  0
   -2.9936   -2.4787   31.2628 C   0  0  0  0  0  0  0  0  0  0  0  0
   -4.0183   -2.0887   32.0259 N   0  0  0  0  0  0  0  0  0  0  0  0
   -6.3192   -1.4546   33.1633 H   0  0  0  0  0  0  0  0  0  0  0  0
   -6.8024    0.1921   33.5461 H   0  0  0  0  0  0  0  0  0  0  0  0
   -6.4254   -0.2465   31.8730 H   0  0  0  0  0  0  0  0  0  0  0  0
   -4.7823    1.8145   31.9406 H   0  0  0  0  0  0  0  0  0  0  0  0
   -5.1812    2.0432   33.6557 H   0  0  0  0  0  0  0  0  0  0  0  0
   -3.5069    1.8602   33.1708 H   0  0  0  0  0  0  0  0  0  0  0  0
   -4.6941   -0.6273   36.3021 H   0  0  0  0  0  0  0  0  0  0  0  0
   -2.3816    0.7089   31.5293 H   0  0  0  0  0  0  0  0  0  0  0  0
   -0.6861   -2.3396   29.7108 H   0  0  0  0  0  0  0  0  0  0  0  0
    1.5401   -1.8107   29.4345 H   0  0  0  0  0  0  0  0  0  0  0  0
    0.6217   -1.4751   27.9531 H   0  0  0  0  0  0  0  0  0  0  0  0
    1.6436    0.8608   27.9193 H   0  0  0  0  0  0  0  0  0  0  0  0
    2.6062    0.4296   29.3266 H   0  0  0  0  0  0  0  0  0  0  0  0
    4.2990   -1.9744   24.8993 H   0  0  0  0  0  0  0  0  0  0  0  0
    6.2685   -1.0796   26.6393 H   0  0  0  0  0  0  0  0  0  0  0  0
    4.9671    0.0774   28.4926 H   0  0  0  0  0  0  0  0  0  0  0  0
   -2.9153   -3.5273   31.0092 H   0  0  0  0  0  0  0  0  0  0  0  0
  1  2  1  0
  2  3  1  0
  2  4  1  0
  4  5  2  0
  4  6  1  0
  2  7  1  0
  7  8  1  0
  8  9  2  0
  9 10  1  0
 10 11  1  0
 11 12  2  0
 11 13  1  0
 13 14  1  0
 14 15  1  0
 15 16  2  0
 16 17  1  0
 17 18  2  0
 18 19  1  0
  9 20  1  0
 20 21  2  0
 21  7  1  0
 19 15  1  0
  1 22  1  0
  1 23  1  0
  1 24  1  0
  3 25  1  0
  3 26  1  0
  3 27  1  0
  6 28  1  0
  8 29  1  0
 10 30  1  0
 13 31  1  0
 13 32  1  0
 14 33  1  0
 14 34  1  0
 17 35  1  0
 18 36  1  0
 19 37  1  0
 20 38  1  0
M  END
>  <Energy>  (6) 
-6.5308477976012762

>  <compound_id>  (6) 
17984

>  <target_id>  (6) 
1

>  <reference_id>  (6) 
114

>  <inspiration_ids>  (6) 
[7, 114]

>  <energy_score>  (6) 
-37.14507871155982

>  <distance_score>  (6) 
12.016651428010558

>  <path>  (6) 
/opt/xchem-fragalysis-2/maxwin/BulkDock/SCRATCH/511020/C17984-P114/C17984-P114.minimised.mol

>  <scratch_subdir>  (6) 
/opt/xchem-fragalysis-2/maxwin/BulkDock/SCRATCH/511020/C17984-P114

>  <fragmenstein_runtime>  (6) 
10.934897661209106

>  <fragmenstein_outcome>  (6) 
too moved

>  <fragmenstein_mode>  (6) 
expansion

>  <fragmenstein_error>  (6) 


$$$$
C48736-P7
     RDKit          3D

 38 39  0  0  0  0  0  0  0  0999 V2000
    0.6756   -2.6977   31.7814 C   0  0  0  0  0  0  0  0  0  0  0  0
   -0.2454   -2.3909   30.5831 C   0  0  0  0  0  0  0  0  0  0  0  0
   -1.3659   -1.4589   31.1039 C   0  0  0  0  0  0  0  0  0  0  0  0
   -0.9103   -3.6690   30.0824 C   0  0  0  0  0  0  0  0  0  0  0  0
   -2.0804   -3.8055   29.7481 O   0  0  0  0  0  0  0  0  0  0  0  0
   -0.0922   -4.7436   30.0118 O   0  0  0  0  0  0  0  0  0  0  0  0
    0.5227   -1.7818   29.4882 N   0  0  0  0  0  0  0  0  0  0  0  0
    1.6711   -2.2747   28.8990 C   0  0  0  0  0  0  0  0  0  0  0  0
    2.1808   -1.2893   28.0739 C   0  0  0  0  0  0  0  0  0  0  0  0
    3.3801   -1.3323   27.3631 N   0  0  0  0  0  0  0  0  0  0  0  0
    4.0450   -0.3197   26.5455 C   0  0  0  0  0  0  0  0  0  0  0  0
    3.6865    0.7787   26.2151 O   0  0  0  0  0  0  0  0  0  0  0  0
    5.5052   -0.7568   26.1477 C   0  0  0  0  0  0  0  0  0  0  0  0
    5.8069   -1.0858   24.6595 C   0  0  0  0  0  0  0  0  0  0  0  0
    7.2693   -1.0142   24.2736 C   0  0  0  0  0  0  0  0  0  0  0  0
    8.2442   -1.9908   24.3384 C   0  0  0  0  0  0  0  0  0  0  0  0
    9.4102   -1.3782   23.9731 N   0  0  0  0  0  0  0  0  0  0  0  0
    9.1074   -0.0892   23.6379 C   0  0  0  0  0  0  0  0  0  0  0  0
    7.8233    0.1482   23.7583 N   0  0  0  0  0  0  0  0  0  0  0  0
    1.2146   -0.2551   28.1931 C   0  0  0  0  0  0  0  0  0  0  0  0
    0.2069   -0.5527   29.0272 N   0  0  0  0  0  0  0  0  0  0  0  0
    1.4926   -3.3786   31.5180 H   0  0  0  0  0  0  0  0  0  0  0  0
    0.1164   -3.1727   32.5962 H   0  0  0  0  0  0  0  0  0  0  0  0
    1.1324   -1.7808   32.1723 H   0  0  0  0  0  0  0  0  0  0  0  0
   -1.9440   -1.9439   31.8998 H   0  0  0  0  0  0  0  0  0  0  0  0
   -0.9569   -0.5266   31.5110 H   0  0  0  0  0  0  0  0  0  0  0  0
   -2.0747   -1.1930   30.3102 H   0  0  0  0  0  0  0  0  0  0  0  0
   -0.6803   -5.4690   29.7079 H   0  0  0  0  0  0  0  0  0  0  0  0
    2.0552   -3.2512   29.1550 H   0  0  0  0  0  0  0  0  0  0  0  0
    3.9415   -2.1761   27.3668 H   0  0  0  0  0  0  0  0  0  0  0  0
    5.8388   -1.5686   26.7992 H   0  0  0  0  0  0  0  0  0  0  0  0
    6.1353    0.0937   26.4472 H   0  0  0  0  0  0  0  0  0  0  0  0
    5.4114   -2.0777   24.4164 H   0  0  0  0  0  0  0  0  0  0  0  0
    5.2591   -0.4044   24.0159 H   0  0  0  0  0  0  0  0  0  0  0  0
    8.2118   -3.0205   24.6610 H   0  0  0  0  0  0  0  0  0  0  0  0
   10.3345   -1.7934   23.9363 H   0  0  0  0  0  0  0  0  0  0  0  0
    9.8610    0.6185   23.3199 H   0  0  0  0  0  0  0  0  0  0  0  0
    1.2246    0.7100   27.7013 H   0  0  0  0  0  0  0  0  0  0  0  0
  1  2  1  0
  2  3  1  0
  2  4  1  0
  4  5  2  0
  4  6  1  0
  2  7  1  0
  7  8  1  0
  8  9  2  0
  9 10  1  0
 10 11  1  0
 11 12  2  0
 11 13  1  0
 13 14  1  0
 14 15  1  0
 15 16  2  0
 16 17  1  0
 17 18  1  0
 18 19  2  0
  9 20  1  0
 20 21  2  0
 21  7  1  0
 19 15  1  0
  1 22  1  0
  1 23  1  0
  1 24  1  0
  3 25  1  0
  3 26  1  0
  3 27  1  0
  6 28  1  0
  8 29  1  0
 10 30  1  0
 13 31  1  0
 13 32  1  0
 14 33  1  0
 14 34  1  0
 16 35  1  0
 17 36  1  0
 18 37  1  0
 20 38  1  0
M  END
>  <Energy>  (7) 
2.5404968273170296

>  <compound_id>  (7) 
48736

>  <target_id>  (7) 
1

>  <reference_id>  (7) 
7

>  <inspiration_ids>  (7) 
[7, 114]

>  <energy_score>  (7) 
-25.60363925187039

>  <distance_score>  (7) 
13.917194201545932

>  <path>  (7) 
/opt/xchem-fragalysis-2/maxwin/BulkDock/SCRATCH/511020/C48736-P7/C48736-P7.minimised.mol

>  <scratch_subdir>  (7) 
/opt/xchem-fragalysis-2/maxwin/BulkDock/SCRATCH/511020/C48736-P7

>  <fragmenstein_runtime>  (7) 
7.82224178314209

>  <fragmenstein_outcome>  (7) 
too moved

>  <fragmenstein_mode>  (7) 
expansion

>  <fragmenstein_error>  (7) 


$$$$
C48736-P114
     RDKit          3D

 38 39  0  0  0  0  0  0  0  0999 V2000
   -2.6127   -0.2293   29.0129 C   0  0  0  0  0  0  0  0  0  0  0  0
   -1.7349   -0.9559   30.0517 C   0  0  0  0  0  0  0  0  0  0  0  0
   -1.4806    0.0206   31.2168 C   0  0  0  0  0  0  0  0  0  0  0  0
   -2.5166   -2.1975   30.4833 C   0  0  0  0  0  0  0  0  0  0  0  0
   -2.8426   -3.1219   29.7454 O   0  0  0  0  0  0  0  0  0  0  0  0
   -2.9120   -2.2081   31.7726 O   0  0  0  0  0  0  0  0  0  0  0  0
   -0.4468   -1.4046   29.5026 N   0  0  0  0  0  0  0  0  0  0  0  0
    0.0844   -1.2073   28.2468 C   0  0  0  0  0  0  0  0  0  0  0  0
    1.3758   -1.7100   28.2462 C   0  0  0  0  0  0  0  0  0  0  0  0
    2.2824   -1.7016   27.1848 N   0  0  0  0  0  0  0  0  0  0  0  0
    3.7133   -1.9538   27.1521 C   0  0  0  0  0  0  0  0  0  0  0  0
    4.4647   -2.3111   28.0187 O   0  0  0  0  0  0  0  0  0  0  0  0
    4.3487   -1.5803   25.7379 C   0  0  0  0  0  0  0  0  0  0  0  0
    4.1221   -2.5249   24.5377 C   0  0  0  0  0  0  0  0  0  0  0  0
    5.1448   -2.7669   23.4426 C   0  0  0  0  0  0  0  0  0  0  0  0
    4.8649   -3.1937   22.1563 C   0  0  0  0  0  0  0  0  0  0  0  0
    6.0694   -3.4630   21.5886 N   0  0  0  0  0  0  0  0  0  0  0  0
    7.0376   -3.1814   22.5019 C   0  0  0  0  0  0  0  0  0  0  0  0
    6.5156   -2.7290   23.6135 N   0  0  0  0  0  0  0  0  0  0  0  0
    1.5193   -2.1946   29.5691 C   0  0  0  0  0  0  0  0  0  0  0  0
    0.4193   -2.0417   30.3192 N   0  0  0  0  0  0  0  0  0  0  0  0
   -2.8201   -0.8622   28.1419 H   0  0  0  0  0  0  0  0  0  0  0  0
   -2.1342    0.6890   28.6533 H   0  0  0  0  0  0  0  0  0  0  0  0
   -3.5826    0.0472   29.4435 H   0  0  0  0  0  0  0  0  0  0  0  0
   -2.4214    0.4005   31.6317 H   0  0  0  0  0  0  0  0  0  0  0  0
   -0.8875    0.8818   30.8872 H   0  0  0  0  0  0  0  0  0  0  0  0
   -0.9357   -0.4560   32.0401 H   0  0  0  0  0  0  0  0  0  0  0  0
   -3.3096   -3.0926   31.9235 H   0  0  0  0  0  0  0  0  0  0  0  0
   -0.4708   -0.7017   27.4738 H   0  0  0  0  0  0  0  0  0  0  0  0
    1.9925   -1.3340   26.2904 H   0  0  0  0  0  0  0  0  0  0  0  0
    5.4223   -1.4648   25.9228 H   0  0  0  0  0  0  0  0  0  0  0  0
    3.9914   -0.5741   25.4872 H   0  0  0  0  0  0  0  0  0  0  0  0
    3.8151   -3.5051   24.8954 H   0  0  0  0  0  0  0  0  0  0  0  0
    3.2397   -2.1659   24.0233 H   0  0  0  0  0  0  0  0  0  0  0  0
    3.9310   -3.3581   21.6403 H   0  0  0  0  0  0  0  0  0  0  0  0
    6.2347   -3.7414   20.6286 H   0  0  0  0  0  0  0  0  0  0  0  0
    8.0911   -3.3265   22.3136 H   0  0  0  0  0  0  0  0  0  0  0  0
    2.3929   -2.6646   30.0052 H   0  0  0  0  0  0  0  0  0  0  0  0
  1  2  1  0
  2  3  1  0
  2  4  1  0
  4  5  2  0
  4  6  1  0
  2  7  1  0
  7  8  1  0
  8  9  2  0
  9 10  1  0
 10 11  1  0
 11 12  2  0
 11 13  1  0
 13 14  1  0
 14 15  1  0
 15 16  2  0
 16 17  1  0
 17 18  1  0
 18 19  2  0
  9 20  1  0
 20 21  2  0
 21  7  1  0
 19 15  1  0
  1 22  1  0
  1 23  1  0
  1 24  1  0
  3 25  1  0
  3 26  1  0
  3 27  1  0
  6 28  1  0
  8 29  1  0
 10 30  1  0
 13 31  1  0
 13 32  1  0
 14 33  1  0
 14 34  1  0
 16 35  1  0
 17 36  1  0
 18 37  1  0
 20 38  1  0
M  END
>  <Energy>  (8) 
7.4225777998998037

>  <compound_id>  (8) 
48736

>  <target_id>  (8) 
1

>  <reference_id>  (8) 
114

>  <inspiration_ids>  (8) 
[7, 114]

>  <energy_score>  (8) 
-20.72155827928674

>  <distance_score>  (8) 
13.135176896786108

>  <path>  (8) 
/opt/xchem-fragalysis-2/maxwin/BulkDock/SCRATCH/511020/C48736-P114/C48736-P114.minimised.mol

>  <scratch_subdir>  (8) 
/opt/xchem-fragalysis-2/maxwin/BulkDock/SCRATCH/511020/C48736-P114

>  <fragmenstein_runtime>  (8) 
9.293087244033813

>  <fragmenstein_outcome>  (8) 
too moved

>  <fragmenstein_mode>  (8) 
expansion

>  <fragmenstein_error>  (8) 


$$$$
C48737-P7
     RDKit          3D

 36 37  0  0  0  0  0  0  0  0999 V2000
    1.6541   -5.0649   32.2482 C   0  0  0  0  0  0  0  0  0  0  0  0
    0.1339   -5.2936   32.1689 C   0  0  0  0  0  0  0  0  0  0  0  0
   -0.2203   -6.6425   32.8257 C   0  0  0  0  0  0  0  0  0  0  0  0
   -0.6262   -4.2357   32.9605 C   0  0  0  0  0  0  0  0  0  0  0  0
   -1.7671   -3.8538   32.7526 O   0  0  0  0  0  0  0  0  0  0  0  0
    0.0350   -3.7622   34.0375 O   0  0  0  0  0  0  0  0  0  0  0  0
   -0.2612   -5.2652   30.7457 N   0  0  0  0  0  0  0  0  0  0  0  0
   -0.4878   -4.1645   29.9706 C   0  0  0  0  0  0  0  0  0  0  0  0
   -0.5585   -4.6294   28.6726 C   0  0  0  0  0  0  0  0  0  0  0  0
   -0.3574   -6.0326   28.7221 C   0  0  0  0  0  0  0  0  0  0  0  0
   -0.1039   -6.9191   27.6794 N   0  0  0  0  0  0  0  0  0  0  0  0
   -0.4680   -6.8664   26.2700 C   0  0  0  0  0  0  0  0  0  0  0  0
   -1.1511   -6.0826   25.6661 O   0  0  0  0  0  0  0  0  0  0  0  0
    0.2725   -7.9993   25.3979 C   0  0  0  0  0  0  0  0  0  0  0  0
   -0.7291   -8.7495   24.7056 O   0  0  0  0  0  0  0  0  0  0  0  0
    1.2928   -7.4257   24.3501 C   0  0  0  0  0  0  0  0  0  0  0  0
    2.6529   -7.6642   24.1888 C   0  0  0  0  0  0  0  0  0  0  0  0
    3.0544   -6.9425   23.0902 N   0  0  0  0  0  0  0  0  0  0  0  0
    1.9448   -6.3411   22.5770 C   0  0  0  0  0  0  0  0  0  0  0  0
    0.8735   -6.6341   23.2862 N   0  0  0  0  0  0  0  0  0  0  0  0
   -0.1544   -6.3961   29.9982 N   0  0  0  0  0  0  0  0  0  0  0  0
    2.0252   -5.1571   33.2753 H   0  0  0  0  0  0  0  0  0  0  0  0
    2.2015   -5.7916   31.6371 H   0  0  0  0  0  0  0  0  0  0  0  0
    1.9239   -4.0639   31.8909 H   0  0  0  0  0  0  0  0  0  0  0  0
   -0.0073   -6.6278   33.9013 H   0  0  0  0  0  0  0  0  0  0  0  0
   -1.2850   -6.8753   32.7086 H   0  0  0  0  0  0  0  0  0  0  0  0
    0.3497   -7.4710   32.3923 H   0  0  0  0  0  0  0  0  0  0  0  0
   -0.6012   -3.1509   34.4694 H   0  0  0  0  0  0  0  0  0  0  0  0
   -0.5540   -3.1611   30.3692 H   0  0  0  0  0  0  0  0  0  0  0  0
   -0.6685   -3.9976   27.8108 H   0  0  0  0  0  0  0  0  0  0  0  0
    0.4197   -7.7706   27.8557 H   0  0  0  0  0  0  0  0  0  0  0  0
    0.8018   -8.6929   26.0584 H   0  0  0  0  0  0  0  0  0  0  0  0
   -1.0055   -8.1502   23.9821 H   0  0  0  0  0  0  0  0  0  0  0  0
    3.3544   -8.2698   24.7459 H   0  0  0  0  0  0  0  0  0  0  0  0
    3.9918   -6.8825   22.7158 H   0  0  0  0  0  0  0  0  0  0  0  0
    1.9703   -5.7113   21.6971 H   0  0  0  0  0  0  0  0  0  0  0  0
  1  2  1  0
  2  3  1  0
  2  4  1  0
  4  5  2  0
  4  6  1  0
  2  7  1  0
  7  8  1  0
  8  9  2  0
  9 10  1  0
 10 11  1  0
 11 12  1  0
 12 13  2  0
 12 14  1  0
 14 15  1  0
 14 16  1  0
 16 17  2  0
 17 18  1  0
 18 19  1  0
 19 20  2  0
 10 21  2  0
 21  7  1  0
 20 16  1  0
  1 22  1  0
  1 23  1  0
  1 24  1  0
  3 25  1  0
  3 26  1  0
  3 27  1  0
  6 28  1  0
  8 29  1  0
  9 30  1  0
 11 31  1  0
 14 32  1  0
 15 33  1  0
 17 34  1  0
 18 35  1  0
 19 36  1  0
M  END
>  <Energy>  (9) 
35.991535926754899

>  <compound_id>  (9) 
48737

>  <target_id>  (9) 
1

>  <reference_id>  (9) 
7

>  <inspiration_ids>  (9) 
[7, 114]

>  <energy_score>  (9) 
-56.72791011081222

>  <distance_score>  (9) 
14.605991417689687

>  <path>  (9) 
/opt/xchem-fragalysis-2/maxwin/BulkDock/SCRATCH/511020/C48737-P7/C48737-P7.minimised.mol

>  <scratch_subdir>  (9) 
/opt/xchem-fragalysis-2/maxwin/BulkDock/SCRATCH/511020/C48737-P7

>  <fragmenstein_runtime>  (9) 
13.725678443908691

>  <fragmenstein_outcome>  (9) 
too moved

>  <fragmenstein_mode>  (9) 
expansion

>  <fragmenstein_error>  (9) 


$$$$
C48737-P114
     RDKit          3D

 36 37  0  0  0  0  0  0  0  0999 V2000
   -3.5355   -2.2950   32.6427 C   0  0  0  0  0  0  0  0  0  0  0  0
   -3.2019   -0.9201   33.2342 C   0  0  0  0  0  0  0  0  0  0  0  0
   -2.8825   -1.1352   34.7320 C   0  0  0  0  0  0  0  0  0  0  0  0
   -4.4076    0.0080   33.1811 C   0  0  0  0  0  0  0  0  0  0  0  0
   -4.4065    1.2257   33.0695 O   0  0  0  0  0  0  0  0  0  0  0  0
   -5.5931   -0.6167   33.3741 O   0  0  0  0  0  0  0  0  0  0  0  0
   -2.0626   -0.3201   32.5134 N   0  0  0  0  0  0  0  0  0  0  0  0
   -1.0768    0.4557   33.0570 C   0  0  0  0  0  0  0  0  0  0  0  0
   -0.0740    0.5135   32.1159 C   0  0  0  0  0  0  0  0  0  0  0  0
   -0.5598   -0.1602   30.9759 C   0  0  0  0  0  0  0  0  0  0  0  0
    0.0733   -0.3320   29.7610 N   0  0  0  0  0  0  0  0  0  0  0  0
    1.4915   -0.1420   29.3693 C   0  0  0  0  0  0  0  0  0  0  0  0
    2.4565    0.1325   30.0319 O   0  0  0  0  0  0  0  0  0  0  0  0
    1.5970   -0.3582   27.8104 C   0  0  0  0  0  0  0  0  0  0  0  0
    0.7506    0.6579   27.2427 O   0  0  0  0  0  0  0  0  0  0  0  0
    2.9746   -0.3571   27.1100 C   0  0  0  0  0  0  0  0  0  0  0  0
    3.8034   -1.4245   26.7973 C   0  0  0  0  0  0  0  0  0  0  0  0
    4.7448   -0.9456   25.9220 N   0  0  0  0  0  0  0  0  0  0  0  0
    4.4881    0.3803   25.7323 C   0  0  0  0  0  0  0  0  0  0  0  0
    3.4353    0.7695   26.4217 N   0  0  0  0  0  0  0  0  0  0  0  0
   -1.8043   -0.6203   31.2064 N   0  0  0  0  0  0  0  0  0  0  0  0
   -4.3024   -2.8093   33.2332 H   0  0  0  0  0  0  0  0  0  0  0  0
   -2.6433   -2.9311   32.6253 H   0  0  0  0  0  0  0  0  0  0  0  0
   -3.9183   -2.2194   31.6206 H   0  0  0  0  0  0  0  0  0  0  0  0
   -1.9710   -1.7291   34.8661 H   0  0  0  0  0  0  0  0  0  0  0  0
   -3.7010   -1.6590   35.2402 H   0  0  0  0  0  0  0  0  0  0  0  0
   -2.7511   -0.1852   35.2629 H   0  0  0  0  0  0  0  0  0  0  0  0
   -6.2670    0.0926   33.3144 H   0  0  0  0  0  0  0  0  0  0  0  0
   -1.1259    0.8552   34.0593 H   0  0  0  0  0  0  0  0  0  0  0  0
    0.8827    1.0070   32.2214 H   0  0  0  0  0  0  0  0  0  0  0  0
   -0.4570   -0.6383   28.9541 H   0  0  0  0  0  0  0  0  0  0  0  0
    1.1305   -1.3274   27.5936 H   0  0  0  0  0  0  0  0  0  0  0  0
    1.3752    1.3798   27.0214 H   0  0  0  0  0  0  0  0  0  0  0  0
    3.7577   -2.4700   27.0621 H   0  0  0  0  0  0  0  0  0  0  0  0
    5.4806   -1.4815   25.4841 H   0  0  0  0  0  0  0  0  0  0  0  0
    5.0883    1.0058   25.0861 H   0  0  0  0  0  0  0  0  0  0  0  0
  1  2  1  0
  2  3  1  0
  2  4  1  0
  4  5  2  0
  4  6  1  0
  2  7  1  0
  7  8  1  0
  8  9  2  0
  9 10  1  0
 10 11  1  0
 11 12  1  0
 12 13  2  0
 12 14  1  0
 14 15  1  0
 14 16  1  0
 16 17  2  0
 17 18  1  0
 18 19  1  0
 19 20  2  0
 10 21  2  0
 21  7  1  0
 20 16  1  0
  1 22  1  0
  1 23  1  0
  1 24  1  0
  3 25  1  0
  3 26  1  0
  3 27  1  0
  6 28  1  0
  8 29  1  0
  9 30  1  0
 11 31  1  0
 14 32  1  0
 15 33  1  0
 17 34  1  0
 18 35  1  0
 19 36  1  0
M  END
>  <Energy>  (10) 
30.27880482639544

>  <compound_id>  (10) 
48737

>  <target_id>  (10) 
1

>  <reference_id>  (10) 
114

>  <inspiration_ids>  (10) 
[7, 114]

>  <energy_score>  (10) 
-62.44064121117026

>  <distance_score>  (10) 
12.78496305977849

>  <path>  (10) 
/opt/xchem-fragalysis-2/maxwin/BulkDock/SCRATCH/511020/C48737-P114/C48737-P114.minimised.mol

>  <scratch_subdir>  (10) 
/opt/xchem-fragalysis-2/maxwin/BulkDock/SCRATCH/511020/C48737-P114

>  <fragmenstein_runtime>  (10) 
12.580320596694946

>  <fragmenstein_outcome>  (10) 
too moved

>  <fragmenstein_mode>  (10) 
expansion

>  <fragmenstein_error>  (10) 


$$$$
C48738-P7
     RDKit          3D

 38 39  0  0  0  0  0  0  0  0999 V2000
    0.1562   -0.0449   31.5308 C   0  0  0  0  0  0  0  0  0  0  0  0
   -0.2983    0.2242   30.0850 C   0  0  0  0  0  0  0  0  0  0  0  0
   -1.7755   -0.1769   29.9415 C   0  0  0  0  0  0  0  0  0  0  0  0
   -0.1996    1.7210   29.8042 C   0  0  0  0  0  0  0  0  0  0  0  0
    0.1517    2.5828   30.5996 O   0  0  0  0  0  0  0  0  0  0  0  0
   -0.6357    2.0870   28.5769 O   0  0  0  0  0  0  0  0  0  0  0  0
    0.5612   -0.5292   29.1691 N   0  0  0  0  0  0  0  0  0  0  0  0
    0.5050   -1.8653   28.8948 C   0  0  0  0  0  0  0  0  0  0  0  0
    1.5707   -2.1111   28.0540 C   0  0  0  0  0  0  0  0  0  0  0  0
    2.2268   -0.8724   27.8601 C   0  0  0  0  0  0  0  0  0  0  0  0
    3.3175   -0.5536   27.0774 N   0  0  0  0  0  0  0  0  0  0  0  0
    4.1848   -1.3927   26.2580 C   0  0  0  0  0  0  0  0  0  0  0  0
    4.2174   -2.5830   26.1197 O   0  0  0  0  0  0  0  0  0  0  0  0
    5.2539   -0.5125   25.5452 C   0  0  0  0  0  0  0  0  0  0  0  0
    6.0818   -1.2399   24.4446 C   0  0  0  0  0  0  0  0  0  0  0  0
    7.2634   -0.4511   23.9549 C   0  0  0  0  0  0  0  0  0  0  0  0
    7.3131    0.7723   23.3166 C   0  0  0  0  0  0  0  0  0  0  0  0
    8.6394    1.1078   23.2776 N   0  0  0  0  0  0  0  0  0  0  0  0
    9.3436    0.0666   23.8025 C   0  0  0  0  0  0  0  0  0  0  0  0
    8.5453   -0.9132   24.1598 N   0  0  0  0  0  0  0  0  0  0  0  0
    1.6206    0.0783   28.5848 N   0  0  0  0  0  0  0  0  0  0  0  0
    1.2010    0.2529   31.6818 H   0  0  0  0  0  0  0  0  0  0  0  0
   -0.4519    0.5154   32.2506 H   0  0  0  0  0  0  0  0  0  0  0  0
    0.0789   -1.1083   31.7854 H   0  0  0  0  0  0  0  0  0  0  0  0
   -1.9527   -1.2033   30.2817 H   0  0  0  0  0  0  0  0  0  0  0  0
   -2.1071   -0.1146   28.8983 H   0  0  0  0  0  0  0  0  0  0  0  0
   -2.4231    0.4799   30.5330 H   0  0  0  0  0  0  0  0  0  0  0  0
   -0.4601    3.0513   28.5223 H   0  0  0  0  0  0  0  0  0  0  0  0
   -0.2592   -2.5206   29.2852 H   0  0  0  0  0  0  0  0  0  0  0  0
    1.8347   -3.0548   27.5987 H   0  0  0  0  0  0  0  0  0  0  0  0
    3.6266    0.4037   27.0125 H   0  0  0  0  0  0  0  0  0  0  0  0
    5.9338   -0.1494   26.3267 H   0  0  0  0  0  0  0  0  0  0  0  0
    4.7589    0.3620   25.1073 H   0  0  0  0  0  0  0  0  0  0  0  0
    6.4431   -2.1969   24.8417 H   0  0  0  0  0  0  0  0  0  0  0  0
    5.4337   -1.4867   23.5966 H   0  0  0  0  0  0  0  0  0  0  0  0
    6.5328    1.4460   22.9915 H   0  0  0  0  0  0  0  0  0  0  0  0
    9.0355    1.9890   22.9833 H   0  0  0  0  0  0  0  0  0  0  0  0
   10.4236    0.0675   23.8898 H   0  0  0  0  0  0  0  0  0  0  0  0
  1  2  1  0
  2  3  1  0
  2  4  1  0
  4  5  2  0
  4  6  1  0
  2  7  1  0
  7  8  1  0
  8  9  2  0
  9 10  1  0
 10 11  1  0
 11 12  1  0
 12 13  2  0
 12 14  1  0
 14 15  1  0
 15 16  1  0
 16 17  2  0
 17 18  1  0
 18 19  1  0
 19 20  2  0
 10 21  2  0
 21  7  1  0
 20 16  1  0
  1 22  1  0
  1 23  1  0
  1 24  1  0
  3 25  1  0
  3 26  1  0
  3 27  1  0
  6 28  1  0
  8 29  1  0
  9 30  1  0
 11 31  1  0
 14 32  1  0
 14 33  1  0
 15 34  1  0
 15 35  1  0
 17 36  1  0
 18 37  1  0
 19 38  1  0
M  END
>  <Energy>  (11) 
-39.632965110774279

>  <compound_id>  (11) 
48738

>  <target_id>  (11) 
1

>  <reference_id>  (11) 
7

>  <inspiration_ids>  (11) 
[7, 114]

>  <energy_score>  (11) 
-52.52676382858044

>  <distance_score>  (11) 
14.361557695937583

>  <path>  (11) 
/opt/xchem-fragalysis-2/maxwin/BulkDock/SCRATCH/511020/C48738-P7/C48738-P7.minimised.mol

>  <scratch_subdir>  (11) 
/opt/xchem-fragalysis-2/maxwin/BulkDock/SCRATCH/511020/C48738-P7

>  <fragmenstein_runtime>  (11) 
13.159465074539185

>  <fragmenstein_outcome>  (11) 
too moved

>  <fragmenstein_mode>  (11) 
expansion

>  <fragmenstein_error>  (11) 


$$$$
C48738-P114
     RDKit          3D

 38 39  0  0  0  0  0  0  0  0999 V2000
    3.3560   -1.3368   28.4864 C   0  0  0  0  0  0  0  0  0  0  0  0
    4.8144   -1.6368   28.0770 C   0  0  0  0  0  0  0  0  0  0  0  0
    5.6013   -0.3155   28.0514 C   0  0  0  0  0  0  0  0  0  0  0  0
    5.4366   -2.5252   29.1691 C   0  0  0  0  0  0  0  0  0  0  0  0
    5.0520   -2.5320   30.3346 O   0  0  0  0  0  0  0  0  0  0  0  0
    6.5066   -3.2729   28.8042 O   0  0  0  0  0  0  0  0  0  0  0  0
    4.8886   -2.2731   26.7513 N   0  0  0  0  0  0  0  0  0  0  0  0
    3.9386   -2.3307   25.7844 C   0  0  0  0  0  0  0  0  0  0  0  0
    4.5050   -3.0126   24.7252 C   0  0  0  0  0  0  0  0  0  0  0  0
    5.8553   -3.2580   25.0836 C   0  0  0  0  0  0  0  0  0  0  0  0
    6.8836   -3.8232   24.3413 N   0  0  0  0  0  0  0  0  0  0  0  0
    6.8627   -4.5521   23.0679 C   0  0  0  0  0  0  0  0  0  0  0  0
    5.9398   -4.9126   22.3865 O   0  0  0  0  0  0  0  0  0  0  0  0
    8.3508   -4.8621   22.5661 C   0  0  0  0  0  0  0  0  0  0  0  0
    8.6092   -4.7599   20.9868 C   0  0  0  0  0  0  0  0  0  0  0  0
    9.0059   -3.2772   20.3993 C   0  0  0  0  0  0  0  0  0  0  0  0
    8.5116   -1.4891   19.4279 C   0  0  0  0  0  0  0  0  0  0  0  0
    7.1800   -0.8791   20.2846 N   0  0  0  0  0  0  0  0  0  0  0  0
    6.9587   -1.6146   21.4395 C   0  0  0  0  0  0  0  0  0  0  0  0
    7.7227   -2.7148   21.5335 N   0  0  0  0  0  0  0  0  0  0  0  0
    6.0794   -2.8004   26.3316 N   0  0  0  0  0  0  0  0  0  0  0  0
    2.7543   -2.2534   28.5088 H   0  0  0  0  0  0  0  0  0  0  0  0
    3.3023   -0.8882   29.4855 H   0  0  0  0  0  0  0  0  0  0  0  0
    2.8768   -0.6317   27.7976 H   0  0  0  0  0  0  0  0  0  0  0  0
    6.6609   -0.4808   27.8230 H   0  0  0  0  0  0  0  0  0  0  0  0
    5.5582    0.1909   29.0228 H   0  0  0  0  0  0  0  0  0  0  0  0
    5.2036    0.3697   27.2939 H   0  0  0  0  0  0  0  0  0  0  0  0
    6.6845   -3.2149   27.8285 H   0  0  0  0  0  0  0  0  0  0  0  0
    2.9543   -1.9094   25.9049 H   0  0  0  0  0  0  0  0  0  0  0  0
    4.0198   -3.2506   23.7876 H   0  0  0  0  0  0  0  0  0  0  0  0
    7.8339   -3.7619   24.6714 H   0  0  0  0  0  0  0  0  0  0  0  0
    9.0819   -4.2492   23.1029 H   0  0  0  0  0  0  0  0  0  0  0  0
    8.5263   -5.9055   22.8587 H   0  0  0  0  0  0  0  0  0  0  0  0
    7.6912   -5.1085   20.5074 H   0  0  0  0  0  0  0  0  0  0  0  0
    9.4354   -5.4358   20.7438 H   0  0  0  0  0  0  0  0  0  0  0  0
    9.0662   -0.6752   19.6801 H   0  0  0  0  0  0  0  0  0  0  0  0
    6.8468    0.0484   20.0906 H   0  0  0  0  0  0  0  0  0  0  0  0
    6.2055   -1.3199   22.1617 H   0  0  0  0  0  0  0  0  0  0  0  0
  1  2  1  0
  2  3  1  0
  2  4  1  0
  4  5  2  0
  4  6  1  0
  2  7  1  0
  7  8  1  0
  8  9  2  0
  9 10  1  0
 10 11  1  0
 11 12  1  0
 12 13  2  0
 12 14  1  0
 14 15  1  0
 15 16  1  0
 16 17  2  0
 17 18  1  0
 18 19  1  0
 19 20  2  0
 10 21  2  0
 21  7  1  0
 20 16  1  0
  1 22  1  0
  1 23  1  0
  1 24  1  0
  3 25  1  0
  3 26  1  0
  3 27  1  0
  6 28  1  0
  8 29  1  0
  9 30  1  0
 11 31  1  0
 14 32  1  0
 14 33  1  0
 15 34  1  0
 15 35  1  0
 17 36  1  0
 18 37  1  0
 19 38  1  0
M  END
>  <Energy>  (12) 
325.34323593926814

>  <compound_id>  (12) 
48738

>  <target_id>  (12) 
1

>  <reference_id>  (12) 
114

>  <inspiration_ids>  (12) 
[7, 114]

>  <energy_score>  (12) 
312.449437221459

>  <distance_score>  (12) 
17.275418314156553

>  <path>  (12) 
/opt/xchem-fragalysis-2/maxwin/BulkDock/SCRATCH/511020/C48738-P114/C48738-P114.minimised.mol

>  <scratch_subdir>  (12) 
/opt/xchem-fragalysis-2/maxwin/BulkDock/SCRATCH/511020/C48738-P114

>  <fragmenstein_runtime>  (12) 
9.70426893234253

>  <fragmenstein_outcome>  (12) 
too moved

>  <fragmenstein_mode>  (12) 
expansion

>  <fragmenstein_error>  (12) 


$$$$
C48739-P7
     RDKit          3D

 43 44  0  0  0  0  0  0  0  0999 V2000
   -5.8088   -1.2390   33.1987 C   0  0  0  0  0  0  0  0  0  0  0  0
   -4.7652   -2.1709   32.5749 C   0  0  0  0  0  0  0  0  0  0  0  0
   -3.3975   -1.6492   32.5102 N   0  0  0  0  0  0  0  0  0  0  0  0
   -2.7755   -1.0068   33.5365 C   0  0  0  0  0  0  0  0  0  0  0  0
   -1.5211   -0.6980   33.0793 C   0  0  0  0  0  0  0  0  0  0  0  0
   -1.4075   -1.2010   31.7342 C   0  0  0  0  0  0  0  0  0  0  0  0
   -0.1299   -0.9525   30.8638 C   0  0  0  0  0  0  0  0  0  0  0  0
    0.7282   -0.3287   31.4193 O   0  0  0  0  0  0  0  0  0  0  0  0
   -0.2163   -1.4253   29.5028 N   0  0  0  0  0  0  0  0  0  0  0  0
    0.6940   -1.2023   28.3140 C   0  0  0  0  0  0  0  0  0  0  0  0
    0.7686    0.3089   28.0668 C   0  0  0  0  0  0  0  0  0  0  0  0
    2.1754   -1.8045   28.1964 C   0  0  0  0  0  0  0  0  0  0  0  0
    2.6073   -2.1085   26.7782 N   0  0  0  0  0  0  0  0  0  0  0  0
    3.8949   -1.8613   26.0765 C   0  0  0  0  0  0  0  0  0  0  0  0
    4.8878   -1.2845   26.4418 O   0  0  0  0  0  0  0  0  0  0  0  0
    3.8483   -2.5762   24.5814 C   0  0  0  0  0  0  0  0  0  0  0  0
    3.4570   -3.9525   24.6075 O   0  0  0  0  0  0  0  0  0  0  0  0
    5.0266   -2.5464   23.5762 C   0  0  0  0  0  0  0  0  0  0  0  0
    5.4312   -1.6387   22.6153 C   0  0  0  0  0  0  0  0  0  0  0  0
    5.9163   -2.4075   21.5946 N   0  0  0  0  0  0  0  0  0  0  0  0
    6.0994   -3.6709   22.0607 C   0  0  0  0  0  0  0  0  0  0  0  0
    5.5983   -3.7853   23.2596 N   0  0  0  0  0  0  0  0  0  0  0  0
   -2.5849   -1.8078   31.3978 N   0  0  0  0  0  0  0  0  0  0  0  0
   -5.7277   -0.2233   32.8007 H   0  0  0  0  0  0  0  0  0  0  0  0
   -5.6776   -1.1805   34.2841 H   0  0  0  0  0  0  0  0  0  0  0  0
   -6.8197   -1.6023   33.0004 H   0  0  0  0  0  0  0  0  0  0  0  0
   -4.7276   -3.0809   33.1652 H   0  0  0  0  0  0  0  0  0  0  0  0
   -5.0528   -2.4615   31.5635 H   0  0  0  0  0  0  0  0  0  0  0  0
   -3.2500   -0.8347   34.4921 H   0  0  0  0  0  0  0  0  0  0  0  0
   -0.7458   -0.1736   33.6234 H   0  0  0  0  0  0  0  0  0  0  0  0
   -1.0543   -1.9942   29.4024 H   0  0  0  0  0  0  0  0  0  0  0  0
    0.1197   -1.6479   27.5018 H   0  0  0  0  0  0  0  0  0  0  0  0
   -0.2327    0.7290   27.9212 H   0  0  0  0  0  0  0  0  0  0  0  0
    1.3686    0.5459   27.1857 H   0  0  0  0  0  0  0  0  0  0  0  0
    1.2229    0.8249   28.9196 H   0  0  0  0  0  0  0  0  0  0  0  0
    2.9194   -1.1447   28.6533 H   0  0  0  0  0  0  0  0  0  0  0  0
    2.1998   -2.7674   28.7168 H   0  0  0  0  0  0  0  0  0  0  0  0
    1.9597   -2.5587   26.1365 H   0  0  0  0  0  0  0  0  0  0  0  0
    3.0409   -2.0839   24.0833 H   0  0  0  0  0  0  0  0  0  0  0  0
    4.3260   -4.4158   24.5902 H   0  0  0  0  0  0  0  0  0  0  0  0
    5.2372   -0.5876   22.4681 H   0  0  0  0  0  0  0  0  0  0  0  0
    6.1336   -2.1141   20.6521 H   0  0  0  0  0  0  0  0  0  0  0  0
    6.5733   -4.4580   21.4893 H   0  0  0  0  0  0  0  0  0  0  0  0
  1  2  1  0
  2  3  1  0
  3  4  1  0
  4  5  2  0
  5  6  1  0
  6  7  1  0
  7  8  2  0
  7  9  1  0
  9 10  1  0
 10 11  1  0
 10 12  1  0
 12 13  1  0
 13 14  1  0
 14 15  2  0
 14 16  1  0
 16 17  1  0
 16 18  1  0
 18 19  2  0
 19 20  1  0
 20 21  1  0
 21 22  2  0
  6 23  2  0
 23  3  1  0
 22 18  1  0
  1 24  1  0
  1 25  1  0
  1 26  1  0
  2 27  1  0
  2 28  1  0
  4 29  1  0
  5 30  1  0
  9 31  1  0
 10 32  1  0
 11 33  1  0
 11 34  1  0
 11 35  1  0
 12 36  1  0
 12 37  1  0
 13 38  1  0
 16 39  1  0
 17 40  1  0
 19 41  1  0
 20 42  1  0
 21 43  1  0
M  END
>  <Energy>  (13) 
132.75625232316077

>  <compound_id>  (13) 
48739

>  <target_id>  (13) 
1

>  <reference_id>  (13) 
7

>  <inspiration_ids>  (13) 
[7, 114]

>  <energy_score>  (13) 
0.492527790503857

>  <distance_score>  (13) 
10.51989392552517

>  <path>  (13) 
/opt/xchem-fragalysis-2/maxwin/BulkDock/SCRATCH/511020/C48739-P7/C48739-P7.minimised.mol

>  <scratch_subdir>  (13) 
/opt/xchem-fragalysis-2/maxwin/BulkDock/SCRATCH/511020/C48739-P7

>  <fragmenstein_runtime>  (13) 
14.68259048461914

>  <fragmenstein_outcome>  (13) 
too moved

>  <fragmenstein_mode>  (13) 
expansion

>  <fragmenstein_error>  (13) 


$$$$
C48739-P114
     RDKit          3D

 43 44  0  0  0  0  0  0  0  0999 V2000
   -4.2583   -1.6839   32.6834 C   0  0  0  0  0  0  0  0  0  0  0  0
   -2.7310   -1.7823   32.6734 C   0  0  0  0  0  0  0  0  0  0  0  0
   -2.0434   -1.3752   31.4448 N   0  0  0  0  0  0  0  0  0  0  0  0
   -2.1020   -0.1517   30.8491 C   0  0  0  0  0  0  0  0  0  0  0  0
   -1.1142   -0.1444   29.8836 C   0  0  0  0  0  0  0  0  0  0  0  0
   -0.4217   -1.3980   29.9802 C   0  0  0  0  0  0  0  0  0  0  0  0
    0.9309   -1.8423   29.3070 C   0  0  0  0  0  0  0  0  0  0  0  0
    1.5257   -2.7228   29.8600 O   0  0  0  0  0  0  0  0  0  0  0  0
    1.2968   -1.0308   28.1488 N   0  0  0  0  0  0  0  0  0  0  0  0
    2.5756   -0.9715   27.3429 C   0  0  0  0  0  0  0  0  0  0  0  0
    3.6813   -0.3877   28.2288 C   0  0  0  0  0  0  0  0  0  0  0  0
    3.1001   -2.2772   26.6391 C   0  0  0  0  0  0  0  0  0  0  0  0
    3.7986   -2.2153   25.2864 N   0  0  0  0  0  0  0  0  0  0  0  0
    3.8798   -3.2325   24.1697 C   0  0  0  0  0  0  0  0  0  0  0  0
    3.3429   -4.3080   24.0472 O   0  0  0  0  0  0  0  0  0  0  0  0
    4.9548   -2.8216   23.0201 C   0  0  0  0  0  0  0  0  0  0  0  0
    4.6660   -1.8291   22.0603 O   0  0  0  0  0  0  0  0  0  0  0  0
    5.4386   -4.0070   22.2058 C   0  0  0  0  0  0  0  0  0  0  0  0
    4.8374   -4.6052   21.1112 C   0  0  0  0  0  0  0  0  0  0  0  0
    5.7424   -5.5088   20.6385 N   0  0  0  0  0  0  0  0  0  0  0  0
    6.8394   -5.4401   21.4408 C   0  0  0  0  0  0  0  0  0  0  0  0
    6.7056   -4.5191   22.3687 N   0  0  0  0  0  0  0  0  0  0  0  0
   -1.0695   -2.1590   30.9113 N   0  0  0  0  0  0  0  0  0  0  0  0
   -4.5761   -0.6427   32.5801 H   0  0  0  0  0  0  0  0  0  0  0  0
   -4.6612   -2.0516   33.6312 H   0  0  0  0  0  0  0  0  0  0  0  0
   -4.6962   -2.2679   31.8697 H   0  0  0  0  0  0  0  0  0  0  0  0
   -2.4067   -2.8066   32.8611 H   0  0  0  0  0  0  0  0  0  0  0  0
   -2.3141   -1.1555   33.4704 H   0  0  0  0  0  0  0  0  0  0  0  0
   -2.7966    0.6080   31.1681 H   0  0  0  0  0  0  0  0  0  0  0  0
   -0.8562    0.6990   29.2595 H   0  0  0  0  0  0  0  0  0  0  0  0
    0.5186   -0.4361   27.9035 H   0  0  0  0  0  0  0  0  0  0  0  0
    2.3819   -0.2238   26.5778 H   0  0  0  0  0  0  0  0  0  0  0  0
    3.3730    0.5759   28.6491 H   0  0  0  0  0  0  0  0  0  0  0  0
    3.9119   -1.0538   29.0672 H   0  0  0  0  0  0  0  0  0  0  0  0
    4.5995   -0.2273   27.6538 H   0  0  0  0  0  0  0  0  0  0  0  0
    2.3055   -3.0150   26.6021 H   0  0  0  0  0  0  0  0  0  0  0  0
    3.8500   -2.7204   27.3027 H   0  0  0  0  0  0  0  0  0  0  0  0
    4.3154   -1.3861   25.0202 H   0  0  0  0  0  0  0  0  0  0  0  0
    5.8327   -2.4738   23.5729 H   0  0  0  0  0  0  0  0  0  0  0  0
    4.2815   -1.0775   22.5522 H   0  0  0  0  0  0  0  0  0  0  0  0
    3.8785   -4.4422   20.6430 H   0  0  0  0  0  0  0  0  0  0  0  0
    5.6133   -6.1288   19.8533 H   0  0  0  0  0  0  0  0  0  0  0  0
    7.7037   -6.0748   21.3050 H   0  0  0  0  0  0  0  0  0  0  0  0
  1  2  1  0
  2  3  1  0
  3  4  1  0
  4  5  2  0
  5  6  1  0
  6  7  1  0
  7  8  2  0
  7  9  1  0
  9 10  1  0
 10 11  1  0
 10 12  1  0
 12 13  1  0
 13 14  1  0
 14 15  2  0
 14 16  1  0
 16 17  1  0
 16 18  1  0
 18 19  2  0
 19 20  1  0
 20 21  1  0
 21 22  2  0
  6 23  2  0
 23  3  1  0
 22 18  1  0
  1 24  1  0
  1 25  1  0
  1 26  1  0
  2 27  1  0
  2 28  1  0
  4 29  1  0
  5 30  1  0
  9 31  1  0
 10 32  1  0
 11 33  1  0
 11 34  1  0
 11 35  1  0
 12 36  1  0
 12 37  1  0
 13 38  1  0
 16 39  1  0
 17 40  1  0
 19 41  1  0
 20 42  1  0
 21 43  1  0
M  END
>  <Energy>  (14) 
144.0982743509596

>  <compound_id>  (14) 
48739

>  <target_id>  (14) 
1

>  <reference_id>  (14) 
114

>  <inspiration_ids>  (14) 
[7, 114]

>  <energy_score>  (14) 
11.834549818303742

>  <distance_score>  (14) 
11.257244568423053

>  <path>  (14) 
/opt/xchem-fragalysis-2/maxwin/BulkDock/SCRATCH/511020/C48739-P114/C48739-P114.minimised.mol

>  <scratch_subdir>  (14) 
/opt/xchem-fragalysis-2/maxwin/BulkDock/SCRATCH/511020/C48739-P114

>  <fragmenstein_runtime>  (14) 
11.080440282821655

>  <fragmenstein_outcome>  (14) 
too moved

>  <fragmenstein_mode>  (14) 
expansion

>  <fragmenstein_error>  (14) 


$$$$
C48740-P7
     RDKit          3D

 45 46  0  0  0  0  0  0  0  0999 V2000
   -2.1204   -3.2205   18.8186 C   0  0  0  0  0  0  0  0  0  0  0  0
   -2.8873   -3.9307   19.9429 C   0  0  0  0  0  0  0  0  0  0  0  0
   -2.0699   -4.1121   21.2318 N   0  0  0  0  0  0  0  0  0  0  0  0
   -3.4644   -4.4744   21.8000 C   0  0  0  0  0  0  0  0  0  0  0  0
   -4.2704   -3.3117   22.4816 C   0  0  0  0  0  0  0  0  0  0  0  0
   -5.4725   -3.7111   23.2390 N   0  0  0  0  0  0  0  0  0  0  0  0
   -6.4184   -2.9153   24.0265 C   0  0  0  0  0  0  0  0  0  0  0  0
   -6.4970   -1.7293   24.1866 O   0  0  0  0  0  0  0  0  0  0  0  0
   -7.4536   -3.8182   24.7443 C   0  0  0  0  0  0  0  0  0  0  0  0
   -7.9510   -3.2895   26.0289 N   0  0  0  0  0  0  0  0  0  0  0  0
   -8.9343   -2.3473   26.2157 C   0  0  0  0  0  0  0  0  0  0  0  0
   -9.1178   -2.2244   27.5725 C   0  0  0  0  0  0  0  0  0  0  0  0
   -8.2334   -3.1623   28.1264 C   0  0  0  0  0  0  0  0  0  0  0  0
   -7.5692   -3.8628   27.1992 N   0  0  0  0  0  0  0  0  0  0  0  0
   -0.9055   -4.9458   20.9740 C   0  0  0  0  0  0  0  0  0  0  0  0
   -0.7664   -6.1405   21.0536 O   0  0  0  0  0  0  0  0  0  0  0  0
    0.3377   -4.0724   20.6485 C   0  0  0  0  0  0  0  0  0  0  0  0
    1.4970   -4.7820   19.9002 C   0  0  0  0  0  0  0  0  0  0  0  0
    2.7172   -3.9311   19.7312 C   0  0  0  0  0  0  0  0  0  0  0  0
    3.9278   -4.0207   20.3866 C   0  0  0  0  0  0  0  0  0  0  0  0
    4.6338   -2.9212   19.9866 N   0  0  0  0  0  0  0  0  0  0  0  0
    3.8915   -2.2690   19.0382 C   0  0  0  0  0  0  0  0  0  0  0  0
    2.7268   -2.8505   18.8708 N   0  0  0  0  0  0  0  0  0  0  0  0
   -1.7388   -2.2523   19.1510 H   0  0  0  0  0  0  0  0  0  0  0  0
   -2.7906   -3.0422   17.9703 H   0  0  0  0  0  0  0  0  0  0  0  0
   -1.2919   -3.8278   18.4437 H   0  0  0  0  0  0  0  0  0  0  0  0
   -3.7793   -3.2993   20.0478 H   0  0  0  0  0  0  0  0  0  0  0  0
   -3.1432   -4.9170   19.5214 H   0  0  0  0  0  0  0  0  0  0  0  0
   -3.1729   -5.1197   22.6450 H   0  0  0  0  0  0  0  0  0  0  0  0
   -4.0913   -5.1836   21.2318 H   0  0  0  0  0  0  0  0  0  0  0  0
   -4.5984   -2.5565   21.7624 H   0  0  0  0  0  0  0  0  0  0  0  0
   -3.6161   -2.7997   23.1955 H   0  0  0  0  0  0  0  0  0  0  0  0
   -5.6530   -4.6951   23.3992 H   0  0  0  0  0  0  0  0  0  0  0  0
   -8.3261   -3.9308   24.0917 H   0  0  0  0  0  0  0  0  0  0  0  0
   -7.0412   -4.8101   24.9517 H   0  0  0  0  0  0  0  0  0  0  0  0
   -9.3759   -1.8263   25.3776 H   0  0  0  0  0  0  0  0  0  0  0  0
   -9.7792   -1.5387   28.0805 H   0  0  0  0  0  0  0  0  0  0  0  0
   -8.0392   -3.3602   29.1687 H   0  0  0  0  0  0  0  0  0  0  0  0
    0.7103   -3.7478   21.6287 H   0  0  0  0  0  0  0  0  0  0  0  0
    0.0517   -3.1693   20.1105 H   0  0  0  0  0  0  0  0  0  0  0  0
    1.1416   -5.0961   18.9114 H   0  0  0  0  0  0  0  0  0  0  0  0
    1.7670   -5.7005   20.4359 H   0  0  0  0  0  0  0  0  0  0  0  0
    4.3085   -4.7156   21.1221 H   0  0  0  0  0  0  0  0  0  0  0  0
    5.5939   -2.7109   20.2324 H   0  0  0  0  0  0  0  0  0  0  0  0
    4.2485   -1.3908   18.5191 H   0  0  0  0  0  0  0  0  0  0  0  0
  1  2  1  0
  2  3  1  0
  3  4  1  0
  4  5  1  0
  5  6  1  0
  6  7  1  0
  7  8  2  0
  7  9  1  0
  9 10  1  0
 10 11  1  0
 11 12  2  0
 12 13  1  0
 13 14  2  0
  3 15  1  0
 15 16  2  0
 15 17  1  0
 17 18  1  0
 18 19  1  0
 19 20  2  0
 20 21  1  0
 21 22  1  0
 22 23  2  0
 14 10  1  0
 23 19  1  0
  1 24  1  0
  1 25  1  0
  1 26  1  0
  2 27  1  0
  2 28  1  0
  4 29  1  0
  4 30  1  0
  5 31  1  0
  5 32  1  0
  6 33  1  0
  9 34  1  0
  9 35  1  0
 11 36  1  0
 12 37  1  0
 13 38  1  0
 17 39  1  0
 17 40  1  0
 18 41  1  0
 18 42  1  0
 20 43  1  0
 21 44  1  0
 22 45  1  0
M  END
>  <Energy>  (15) 
90.058168072397621

>  <compound_id>  (15) 
48740

>  <target_id>  (15) 
1

>  <reference_id>  (15) 
7

>  <inspiration_ids>  (15) 
[7, 114]

>  <energy_score>  (15) 
66.31083139410458

>  <distance_score>  (15) 
12.340310197425826

>  <path>  (15) 
/opt/xchem-fragalysis-2/maxwin/BulkDock/SCRATCH/511020/C48740-P7/C48740-P7.minimised.mol

>  <scratch_subdir>  (15) 
/opt/xchem-fragalysis-2/maxwin/BulkDock/SCRATCH/511020/C48740-P7

>  <fragmenstein_runtime>  (15) 
14.140457153320312

>  <fragmenstein_outcome>  (15) 
too moved

>  <fragmenstein_mode>  (15) 
expansion

>  <fragmenstein_error>  (15) 


$$$$
C48740-P114
     RDKit          3D

 45 46  0  0  0  0  0  0  0  0999 V2000
    5.7746   -3.3826   30.1122 C   0  0  0  0  0  0  0  0  0  0  0  0
    5.4661   -1.8964   29.8855 C   0  0  0  0  0  0  0  0  0  0  0  0
    5.2102   -1.5901   28.4150 N   0  0  0  0  0  0  0  0  0  0  0  0
    3.7220   -1.6623   28.8877 C   0  0  0  0  0  0  0  0  0  0  0  0
    2.9103   -0.4711   29.5252 C   0  0  0  0  0  0  0  0  0  0  0  0
    1.4838   -0.8261   29.7966 N   0  0  0  0  0  0  0  0  0  0  0  0
    0.6783   -0.7121   31.0244 C   0  0  0  0  0  0  0  0  0  0  0  0
    0.9900   -0.3792   32.1342 O   0  0  0  0  0  0  0  0  0  0  0  0
   -0.7957   -1.1495   30.7444 C   0  0  0  0  0  0  0  0  0  0  0  0
   -1.8195   -0.9022   31.7966 N   0  0  0  0  0  0  0  0  0  0  0  0
   -2.0335    0.2518   32.5158 C   0  0  0  0  0  0  0  0  0  0  0  0
   -3.2417    0.1192   33.1617 C   0  0  0  0  0  0  0  0  0  0  0  0
   -3.7220   -1.1306   32.7501 C   0  0  0  0  0  0  0  0  0  0  0  0
   -2.8601   -1.7810   31.9584 N   0  0  0  0  0  0  0  0  0  0  0  0
    6.0211   -0.4516   27.9922 C   0  0  0  0  0  0  0  0  0  0  0  0
    5.7729    0.7251   27.9891 O   0  0  0  0  0  0  0  0  0  0  0  0
    7.3495   -1.0228   27.3855 C   0  0  0  0  0  0  0  0  0  0  0  0
    8.4318   -0.0473   26.8549 C   0  0  0  0  0  0  0  0  0  0  0  0
    9.3499   -0.6269   25.7982 C   0  0  0  0  0  0  0  0  0  0  0  0
   10.2481    0.0267   24.9726 C   0  0  0  0  0  0  0  0  0  0  0  0
   10.8831   -0.9564   24.2655 N   0  0  0  0  0  0  0  0  0  0  0  0
   10.3412   -2.1491   24.6473 C   0  0  0  0  0  0  0  0  0  0  0  0
    9.3957   -1.9806   25.5415 N   0  0  0  0  0  0  0  0  0  0  0  0
    6.1357   -3.5366   31.1342 H   0  0  0  0  0  0  0  0  0  0  0  0
    4.8993   -4.0214   29.9692 H   0  0  0  0  0  0  0  0  0  0  0  0
    6.5539   -3.7255   29.4233 H   0  0  0  0  0  0  0  0  0  0  0  0
    6.4191   -1.3926   30.1147 H   0  0  0  0  0  0  0  0  0  0  0  0
    4.8258   -1.4795   30.6743 H   0  0  0  0  0  0  0  0  0  0  0  0
    3.4475   -2.6276   29.3427 H   0  0  0  0  0  0  0  0  0  0  0  0
    3.2380   -1.7661   27.9018 H   0  0  0  0  0  0  0  0  0  0  0  0
    3.3402   -0.1159   30.4647 H   0  0  0  0  0  0  0  0  0  0  0  0
    2.8933    0.3710   28.8256 H   0  0  0  0  0  0  0  0  0  0  0  0
    0.9081   -1.2182   29.0552 H   0  0  0  0  0  0  0  0  0  0  0  0
   -0.7990   -2.2302   30.5627 H   0  0  0  0  0  0  0  0  0  0  0  0
   -1.1687   -0.6249   29.8577 H   0  0  0  0  0  0  0  0  0  0  0  0
   -1.3070    1.0532   32.5024 H   0  0  0  0  0  0  0  0  0  0  0  0
   -3.7132    0.8357   33.8176 H   0  0  0  0  0  0  0  0  0  0  0  0
   -4.6675   -1.5992   32.9950 H   0  0  0  0  0  0  0  0  0  0  0  0
    7.8096   -1.6956   28.1189 H   0  0  0  0  0  0  0  0  0  0  0  0
    7.0315   -1.6323   26.5420 H   0  0  0  0  0  0  0  0  0  0  0  0
    7.9744    0.8719   26.4749 H   0  0  0  0  0  0  0  0  0  0  0  0
    9.0511    0.2654   27.7055 H   0  0  0  0  0  0  0  0  0  0  0  0
   10.5045    1.0702   24.8598 H   0  0  0  0  0  0  0  0  0  0  0  0
   11.6022   -0.8516   23.5550 H   0  0  0  0  0  0  0  0  0  0  0  0
   10.6754   -3.0933   24.2368 H   0  0  0  0  0  0  0  0  0  0  0  0
  1  2  1  0
  2  3  1  0
  3  4  1  0
  4  5  1  0
  5  6  1  0
  6  7  1  0
  7  8  2  0
  7  9  1  0
  9 10  1  0
 10 11  1  0
 11 12  2  0
 12 13  1  0
 13 14  2  0
  3 15  1  0
 15 16  2  0
 15 17  1  0
 17 18  1  0
 18 19  1  0
 19 20  2  0
 20 21  1  0
 21 22  1  0
 22 23  2  0
 14 10  1  0
 23 19  1  0
  1 24  1  0
  1 25  1  0
  1 26  1  0
  2 27  1  0
  2 28  1  0
  4 29  1  0
  4 30  1  0
  5 31  1  0
  5 32  1  0
  6 33  1  0
  9 34  1  0
  9 35  1  0
 11 36  1  0
 12 37  1  0
 13 38  1  0
 17 39  1  0
 17 40  1  0
 18 41  1  0
 18 42  1  0
 20 43  1  0
 21 44  1  0
 22 45  1  0
M  END
>  <Energy>  (16) 
98.038803604103649

>  <compound_id>  (16) 
48740

>  <target_id>  (16) 
1

>  <reference_id>  (16) 
114

>  <inspiration_ids>  (16) 
[7, 114]

>  <energy_score>  (16) 
74.29146692581486

>  <distance_score>  (16) 
12.321525642729446

>  <path>  (16) 
/opt/xchem-fragalysis-2/maxwin/BulkDock/SCRATCH/511020/C48740-P114/C48740-P114.minimised.mol

>  <scratch_subdir>  (16) 
/opt/xchem-fragalysis-2/maxwin/BulkDock/SCRATCH/511020/C48740-P114

>  <fragmenstein_runtime>  (16) 
12.204521894454956

>  <fragmenstein_outcome>  (16) 
too moved

>  <fragmenstein_mode>  (16) 
expansion

>  <fragmenstein_error>  (16) 


$$$$
C17985-P7
     RDKit          3D

 45 46  0  0  0  0  0  0  0  0999 V2000
   -1.8008   -1.6366   27.5462 C   0  0  0  0  0  0  0  0  0  0  0  0
   -3.1718   -1.6317   26.7729 C   0  0  0  0  0  0  0  0  0  0  0  0
   -3.7500   -1.8881   25.1028 N   0  0  0  0  0  0  0  0  0  0  0  0
   -5.3359   -2.1227   25.9813 C   0  0  0  0  0  0  0  0  0  0  0  0
   -7.1018   -1.4691   25.5098 C   0  0  0  0  0  0  0  0  0  0  0  0
   -8.2245   -1.4972   26.4491 N   0  0  0  0  0  0  0  0  0  0  0  0
   -9.2872   -2.4644   26.6298 C   0  0  0  0  0  0  0  0  0  0  0  0
   -9.4722   -3.5257   26.1107 O   0  0  0  0  0  0  0  0  0  0  0  0
  -10.2928   -1.8491   27.5890 C   0  0  0  0  0  0  0  0  0  0  0  0
  -11.3588   -2.7272   28.0293 N   0  0  0  0  0  0  0  0  0  0  0  0
  -11.2450   -3.9311   28.6625 C   0  0  0  0  0  0  0  0  0  0  0  0
  -12.5176   -4.2982   29.0217 C   0  0  0  0  0  0  0  0  0  0  0  0
  -13.3306   -3.2507   28.5597 C   0  0  0  0  0  0  0  0  0  0  0  0
  -12.6252   -2.2664   28.0075 N   0  0  0  0  0  0  0  0  0  0  0  0
   -2.8084   -2.9636   24.3182 C   0  0  0  0  0  0  0  0  0  0  0  0
   -2.9450   -4.1460   24.2567 O   0  0  0  0  0  0  0  0  0  0  0  0
   -1.2922   -2.3778   23.1510 C   0  0  0  0  0  0  0  0  0  0  0  0
    0.6972   -2.7921   22.7812 C   0  0  0  0  0  0  0  0  0  0  0  0
    2.4301   -2.2323   23.6845 C   0  0  0  0  0  0  0  0  0  0  0  0
    2.5878   -1.4013   24.8528 N   0  0  0  0  0  0  0  0  0  0  0  0
    3.8471   -1.3503   25.3248 C   0  0  0  0  0  0  0  0  0  0  0  0
    4.5661   -2.0684   24.4558 C   0  0  0  0  0  0  0  0  0  0  0  0
    3.6545   -2.6404   23.6186 N   0  0  0  0  0  0  0  0  0  0  0  0
   -1.1015   -0.8783   27.1752 H   0  0  0  0  0  0  0  0  0  0  0  0
   -2.0061   -1.3239   28.5798 H   0  0  0  0  0  0  0  0  0  0  0  0
   -1.3028   -2.6018   27.6380 H   0  0  0  0  0  0  0  0  0  0  0  0
   -3.1610   -0.5312   26.7262 H   0  0  0  0  0  0  0  0  0  0  0  0
   -3.8514   -2.0038   27.5261 H   0  0  0  0  0  0  0  0  0  0  0  0
   -5.7317   -2.5857   25.0637 H   0  0  0  0  0  0  0  0  0  0  0  0
   -5.2558   -2.7938   26.8511 H   0  0  0  0  0  0  0  0  0  0  0  0
   -7.4993   -2.0335   24.6550 H   0  0  0  0  0  0  0  0  0  0  0  0
   -7.0719   -0.4416   25.1804 H   0  0  0  0  0  0  0  0  0  0  0  0
   -8.3447   -0.7437   27.1177 H   0  0  0  0  0  0  0  0  0  0  0  0
  -10.7525   -0.9845   27.0952 H   0  0  0  0  0  0  0  0  0  0  0  0
   -9.7715   -1.5061   28.4827 H   0  0  0  0  0  0  0  0  0  0  0  0
  -10.2902   -4.4217   28.7683 H   0  0  0  0  0  0  0  0  0  0  0  0
  -12.8190   -5.2132   29.5075 H   0  0  0  0  0  0  0  0  0  0  0  0
  -14.4075   -3.1528   28.6020 H   0  0  0  0  0  0  0  0  0  0  0  0
   -1.8244   -2.2573   22.2419 H   0  0  0  0  0  0  0  0  0  0  0  0
   -1.5157   -1.3908   23.5352 H   0  0  0  0  0  0  0  0  0  0  0  0
    0.8814   -3.8832   22.9565 H   0  0  0  0  0  0  0  0  0  0  0  0
    0.8251   -3.0130   21.7275 H   0  0  0  0  0  0  0  0  0  0  0  0
    4.1417   -0.7766   26.1872 H   0  0  0  0  0  0  0  0  0  0  0  0
    5.6161   -2.2445   24.4470 H   0  0  0  0  0  0  0  0  0  0  0  0
    3.6783   -3.2206   22.8411 H   0  0  0  0  0  0  0  0  0  0  0  0
  1  2  1  0
  2  3  1  0
  3  4  1  0
  4  5  1  0
  5  6  1  0
  6  7  1  0
  7  8  2  0
  7  9  1  0
  9 10  1  0
 10 11  1  0
 11 12  2  0
 12 13  1  0
 13 14  2  0
  3 15  1  0
 15 16  2  0
 15 17  1  0
 17 18  1  0
 18 19  1  0
 19 20  2  0
 20 21  1  0
 21 22  2  0
 22 23  1  0
 14 10  1  0
 23 19  1  0
  1 24  1  0
  1 25  1  0
  1 26  1  0
  2 27  1  0
  2 28  1  0
  4 29  1  0
  4 30  1  0
  5 31  1  0
  5 32  1  0
  6 33  1  0
  9 34  1  0
  9 35  1  0
 11 36  1  0
 12 37  1  0
 13 38  1  0
 17 39  1  0
 17 40  1  0
 18 41  1  0
 18 42  1  0
 21 43  1  0
 22 44  1  0
 23 45  1  0
M  END
>  <Energy>  (17) 
539.48571937534098

>  <compound_id>  (17) 
17985

>  <target_id>  (17) 
1

>  <reference_id>  (17) 
7

>  <inspiration_ids>  (17) 
[7, 114]

>  <energy_score>  (17) 
506.03064911749163

>  <distance_score>  (17) 
11.609828662744537

>  <path>  (17) 
/opt/xchem-fragalysis-2/maxwin/BulkDock/SCRATCH/511020/C17985-P7/C17985-P7.minimised.mol

>  <scratch_subdir>  (17) 
/opt/xchem-fragalysis-2/maxwin/BulkDock/SCRATCH/511020/C17985-P7

>  <fragmenstein_runtime>  (17) 
14.341569662094116

>  <fragmenstein_outcome>  (17) 
too moved

>  <fragmenstein_mode>  (17) 
expansion

>  <fragmenstein_error>  (17) 


$$$$
C17985-P114
     RDKit          3D

 45 46  0  0  0  0  0  0  0  0999 V2000
    4.3278    1.7989   29.5644 C   0  0  0  0  0  0  0  0  0  0  0  0
    4.6028    0.3420   29.9608 C   0  0  0  0  0  0  0  0  0  0  0  0
    4.1068   -0.6459   28.9104 N   0  0  0  0  0  0  0  0  0  0  0  0
    2.8814   -0.7192   29.8793 C   0  0  0  0  0  0  0  0  0  0  0  0
    1.6837   -1.3879   29.1418 C   0  0  0  0  0  0  0  0  0  0  0  0
    0.4525   -1.6891   29.8947 N   0  0  0  0  0  0  0  0  0  0  0  0
   -0.1307   -1.0510   31.0815 C   0  0  0  0  0  0  0  0  0  0  0  0
    0.2905   -0.1754   31.7823 O   0  0  0  0  0  0  0  0  0  0  0  0
   -1.4939   -1.7342   31.3723 C   0  0  0  0  0  0  0  0  0  0  0  0
   -2.3549   -1.1724   32.4306 N   0  0  0  0  0  0  0  0  0  0  0  0
   -2.6563   -1.7732   33.6348 C   0  0  0  0  0  0  0  0  0  0  0  0
   -3.7208   -1.0870   34.1743 C   0  0  0  0  0  0  0  0  0  0  0  0
   -4.0207   -0.1041   33.2202 C   0  0  0  0  0  0  0  0  0  0  0  0
   -3.2214   -0.1676   32.1497 N   0  0  0  0  0  0  0  0  0  0  0  0
    5.1393   -1.6193   28.6179 C   0  0  0  0  0  0  0  0  0  0  0  0
    5.3634   -2.6936   29.1144 O   0  0  0  0  0  0  0  0  0  0  0  0
    6.0239   -1.1080   27.4340 C   0  0  0  0  0  0  0  0  0  0  0  0
    7.4606   -1.6826   27.4512 C   0  0  0  0  0  0  0  0  0  0  0  0
    8.2608   -1.6269   26.1549 C   0  0  0  0  0  0  0  0  0  0  0  0
    9.4294   -1.0436   25.9456 N   0  0  0  0  0  0  0  0  0  0  0  0
    9.8762   -1.4931   24.7210 C   0  0  0  0  0  0  0  0  0  0  0  0
    8.9579   -2.3444   24.1576 C   0  0  0  0  0  0  0  0  0  0  0  0
    7.9076   -2.3471   25.0359 N   0  0  0  0  0  0  0  0  0  0  0  0
    3.2624    2.0432   29.5405 H   0  0  0  0  0  0  0  0  0  0  0  0
    4.8135    2.4764   30.2739 H   0  0  0  0  0  0  0  0  0  0  0  0
    4.7335    2.0067   28.5683 H   0  0  0  0  0  0  0  0  0  0  0  0
    4.4365    0.1263   31.0313 H   0  0  0  0  0  0  0  0  0  0  0  0
    5.7019    0.2676   29.9169 H   0  0  0  0  0  0  0  0  0  0  0  0
    3.1290   -1.3825   30.7224 H   0  0  0  0  0  0  0  0  0  0  0  0
    2.4720    0.2425   30.2166 H   0  0  0  0  0  0  0  0  0  0  0  0
    1.3789   -0.7501   28.3039 H   0  0  0  0  0  0  0  0  0  0  0  0
    2.0086   -2.3413   28.7091 H   0  0  0  0  0  0  0  0  0  0  0  0
   -0.2201   -2.3395   29.5023 H   0  0  0  0  0  0  0  0  0  0  0  0
   -2.0995   -1.7273   30.4592 H   0  0  0  0  0  0  0  0  0  0  0  0
   -1.2988   -2.7769   31.6497 H   0  0  0  0  0  0  0  0  0  0  0  0
   -2.0915   -2.6222   33.9938 H   0  0  0  0  0  0  0  0  0  0  0  0
   -4.2079   -1.2755   35.1197 H   0  0  0  0  0  0  0  0  0  0  0  0
   -4.7967    0.6498   33.2494 H   0  0  0  0  0  0  0  0  0  0  0  0
    5.5005   -1.3887   26.5136 H   0  0  0  0  0  0  0  0  0  0  0  0
    6.0760   -0.0137   27.4539 H   0  0  0  0  0  0  0  0  0  0  0  0
    8.0306   -1.1478   28.2222 H   0  0  0  0  0  0  0  0  0  0  0  0
    7.4502   -2.7304   27.7752 H   0  0  0  0  0  0  0  0  0  0  0  0
   10.8392   -1.1902   24.3288 H   0  0  0  0  0  0  0  0  0  0  0  0
    8.9388   -2.9041   23.2356 H   0  0  0  0  0  0  0  0  0  0  0  0
    7.0284   -2.8480   24.9547 H   0  0  0  0  0  0  0  0  0  0  0  0
  1  2  1  0
  2  3  1  0
  3  4  1  0
  4  5  1  0
  5  6  1  0
  6  7  1  0
  7  8  2  0
  7  9  1  0
  9 10  1  0
 10 11  1  0
 11 12  2  0
 12 13  1  0
 13 14  2  0
  3 15  1  0
 15 16  2  0
 15 17  1  0
 17 18  1  0
 18 19  1  0
 19 20  2  0
 20 21  1  0
 21 22  2  0
 22 23  1  0
 14 10  1  0
 23 19  1  0
  1 24  1  0
  1 25  1  0
  1 26  1  0
  2 27  1  0
  2 28  1  0
  4 29  1  0
  4 30  1  0
  5 31  1  0
  5 32  1  0
  6 33  1  0
  9 34  1  0
  9 35  1  0
 11 36  1  0
 12 37  1  0
 13 38  1  0
 17 39  1  0
 17 40  1  0
 18 41  1  0
 18 42  1  0
 21 43  1  0
 22 44  1  0
 23 45  1  0
M  END
>  <Energy>  (18) 
90.156566182106886

>  <compound_id>  (18) 
17985

>  <target_id>  (18) 
1

>  <reference_id>  (18) 
114

>  <inspiration_ids>  (18) 
[7, 114]

>  <energy_score>  (18) 
56.701495924260655

>  <distance_score>  (18) 
11.694510554366873

>  <path>  (18) 
/opt/xchem-fragalysis-2/maxwin/BulkDock/SCRATCH/511020/C17985-P114/C17985-P114.minimised.mol

>  <scratch_subdir>  (18) 
/opt/xchem-fragalysis-2/maxwin/BulkDock/SCRATCH/511020/C17985-P114

>  <fragmenstein_runtime>  (18) 
17.152140378952026

>  <fragmenstein_outcome>  (18) 
too moved

>  <fragmenstein_mode>  (18) 
expansion

>  <fragmenstein_error>  (18) 


$$$$
C48741-P7
     RDKit          3D

 46 47  0  0  0  0  0  0  0  0999 V2000
   -6.1090   -1.2879   33.2167 C   0  0  0  0  0  0  0  0  0  0  0  0
   -5.1705   -0.1125   33.3783 C   0  0  0  0  0  0  0  0  0  0  0  0
   -3.9281   -0.4584   34.1221 C   0  0  0  0  0  0  0  0  0  0  0  0
   -3.7965   -0.3350   35.4901 C   0  0  0  0  0  0  0  0  0  0  0  0
   -2.5265   -0.7057   35.7823 N   0  0  0  0  0  0  0  0  0  0  0  0
   -1.8146   -1.0869   34.7151 N   0  0  0  0  0  0  0  0  0  0  0  0
   -2.6333   -0.9371   33.6557 C   0  0  0  0  0  0  0  0  0  0  0  0
   -2.1933   -1.4121   32.2801 C   0  0  0  0  0  0  0  0  0  0  0  0
   -2.9481   -2.1552   31.7035 O   0  0  0  0  0  0  0  0  0  0  0  0
   -0.8599   -0.9544   31.9191 N   0  0  0  0  0  0  0  0  0  0  0  0
   -0.9499    0.3316   31.1202 C   0  0  0  0  0  0  0  0  0  0  0  0
   -2.0460    0.4175   30.0433 C   0  0  0  0  0  0  0  0  0  0  0  0
    0.0743   -1.3648   30.7307 C   0  0  0  0  0  0  0  0  0  0  0  0
    1.6066   -1.0256   30.8661 C   0  0  0  0  0  0  0  0  0  0  0  0
    2.4802   -1.5585   29.8136 N   0  0  0  0  0  0  0  0  0  0  0  0
    2.8771   -0.9944   28.5126 C   0  0  0  0  0  0  0  0  0  0  0  0
    2.5216    0.0058   27.9551 O   0  0  0  0  0  0  0  0  0  0  0  0
    3.9033   -2.0139   27.8594 C   0  0  0  0  0  0  0  0  0  0  0  0
    4.8039   -2.4822   28.8822 O   0  0  0  0  0  0  0  0  0  0  0  0
    4.6894   -1.5947   26.6227 C   0  0  0  0  0  0  0  0  0  0  0  0
    4.3600   -1.7755   25.2970 C   0  0  0  0  0  0  0  0  0  0  0  0
    5.4120   -1.3016   24.5638 N   0  0  0  0  0  0  0  0  0  0  0  0
    6.3977   -0.9720   25.4461 C   0  0  0  0  0  0  0  0  0  0  0  0
    6.0082   -1.1471   26.6948 N   0  0  0  0  0  0  0  0  0  0  0  0
   -5.6211   -2.1179   32.6958 H   0  0  0  0  0  0  0  0  0  0  0  0
   -6.4456   -1.6494   34.1938 H   0  0  0  0  0  0  0  0  0  0  0  0
   -6.9911   -0.9925   32.6411 H   0  0  0  0  0  0  0  0  0  0  0  0
   -4.8766    0.2822   32.4068 H   0  0  0  0  0  0  0  0  0  0  0  0
   -5.6976    0.7019   33.8906 H   0  0  0  0  0  0  0  0  0  0  0  0
   -4.4820   -0.0060   36.2590 H   0  0  0  0  0  0  0  0  0  0  0  0
   -2.0709   -0.7241   36.6900 H   0  0  0  0  0  0  0  0  0  0  0  0
   -0.0168    0.8041   30.7917 H   0  0  0  0  0  0  0  0  0  0  0  0
   -1.2788    1.0527   31.8865 H   0  0  0  0  0  0  0  0  0  0  0  0
   -2.0745   -0.4322   29.3573 H   0  0  0  0  0  0  0  0  0  0  0  0
   -1.9057    1.3183   29.4403 H   0  0  0  0  0  0  0  0  0  0  0  0
   -3.0271    0.4825   30.5181 H   0  0  0  0  0  0  0  0  0  0  0  0
   -0.2992   -1.2349   29.7067 H   0  0  0  0  0  0  0  0  0  0  0  0
    0.0336   -2.4630   30.8144 H   0  0  0  0  0  0  0  0  0  0  0  0
    1.9739   -1.4362   31.8133 H   0  0  0  0  0  0  0  0  0  0  0  0
    1.7901    0.0511   30.8901 H   0  0  0  0  0  0  0  0  0  0  0  0
    3.0499   -2.3832   30.0078 H   0  0  0  0  0  0  0  0  0  0  0  0
    3.2784   -2.8663   27.5777 H   0  0  0  0  0  0  0  0  0  0  0  0
    5.6248   -1.9762   28.7009 H   0  0  0  0  0  0  0  0  0  0  0  0
    3.4661   -2.1463   24.8189 H   0  0  0  0  0  0  0  0  0  0  0  0
    5.3980   -1.1542   23.5630 H   0  0  0  0  0  0  0  0  0  0  0  0
    7.3607   -0.5967   25.1305 H   0  0  0  0  0  0  0  0  0  0  0  0
  1  2  1  0
  2  3  1  0
  3  4  2  0
  4  5  1  0
  5  6  1  0
  6  7  2  0
  7  8  1  0
  8  9  2  0
  8 10  1  0
 10 11  1  0
 11 12  1  0
 10 13  1  0
 13 14  1  0
 14 15  1  0
 15 16  1  0
 16 17  2  0
 16 18  1  0
 18 19  1  0
 18 20  1  0
 20 21  2  0
 21 22  1  0
 22 23  1  0
 23 24  2  0
  7  3  1  0
 24 20  1  0
  1 25  1  0
  1 26  1  0
  1 27  1  0
  2 28  1  0
  2 29  1  0
  4 30  1  0
  5 31  1  0
 11 32  1  0
 11 33  1  0
 12 34  1  0
 12 35  1  0
 12 36  1  0
 13 37  1  0
 13 38  1  0
 14 39  1  0
 14 40  1  0
 15 41  1  0
 18 42  1  0
 19 43  1  0
 21 44  1  0
 22 45  1  0
 23 46  1  0
M  END
>  <Energy>  (19) 
190.57064080569467

>  <compound_id>  (19) 
48741

>  <target_id>  (19) 
1

>  <reference_id>  (19) 
7

>  <inspiration_ids>  (19) 
[7, 114]

>  <energy_score>  (19) 
46.6823013228622

>  <distance_score>  (19) 
11.222378225352797

>  <path>  (19) 
/opt/xchem-fragalysis-2/maxwin/BulkDock/SCRATCH/511020/C48741-P7/C48741-P7.minimised.mol

>  <scratch_subdir>  (19) 
/opt/xchem-fragalysis-2/maxwin/BulkDock/SCRATCH/511020/C48741-P7

>  <fragmenstein_runtime>  (19) 
20.58069372177124

>  <fragmenstein_outcome>  (19) 
too moved

>  <fragmenstein_mode>  (19) 
expansion

>  <fragmenstein_error>  (19) 


$$$$
C48741-P114
     RDKit          3D

 46 47  0  0  0  0  0  0  0  0999 V2000
   -4.1630    1.6621   34.8022 C   0  0  0  0  0  0  0  0  0  0  0  0
   -3.0791    0.8360   34.1255 C   0  0  0  0  0  0  0  0  0  0  0  0
   -3.5671   -0.3268   33.3223 C   0  0  0  0  0  0  0  0  0  0  0  0
   -4.8046   -0.9297   33.4267 C   0  0  0  0  0  0  0  0  0  0  0  0
   -4.7936   -1.9654   32.5566 N   0  0  0  0  0  0  0  0  0  0  0  0
   -3.6543   -2.0894   31.8546 N   0  0  0  0  0  0  0  0  0  0  0  0
   -2.8535   -1.0850   32.2967 C   0  0  0  0  0  0  0  0  0  0  0  0
   -1.4060   -0.9037   31.7944 C   0  0  0  0  0  0  0  0  0  0  0  0
   -0.5891   -0.5055   32.5833 O   0  0  0  0  0  0  0  0  0  0  0  0
   -1.2503   -1.3497   30.4245 N   0  0  0  0  0  0  0  0  0  0  0  0
   -1.4239   -0.1841   29.4789 C   0  0  0  0  0  0  0  0  0  0  0  0
   -1.7662   -0.3994   27.9981 C   0  0  0  0  0  0  0  0  0  0  0  0
    0.0321   -1.5712   29.5662 C   0  0  0  0  0  0  0  0  0  0  0  0
    1.2794   -0.6408   29.2590 C   0  0  0  0  0  0  0  0  0  0  0  0
    2.2497   -1.2929   28.3450 N   0  0  0  0  0  0  0  0  0  0  0  0
    3.1379   -0.7213   27.3063 C   0  0  0  0  0  0  0  0  0  0  0  0
    3.2341    0.4017   26.8934 O   0  0  0  0  0  0  0  0  0  0  0  0
    4.0029   -1.9115   26.7108 C   0  0  0  0  0  0  0  0  0  0  0  0
    4.6531   -2.5210   27.8491 O   0  0  0  0  0  0  0  0  0  0  0  0
    5.0088   -1.6687   25.5809 C   0  0  0  0  0  0  0  0  0  0  0  0
    6.0004   -0.7175   25.4187 C   0  0  0  0  0  0  0  0  0  0  0  0
    6.6391   -1.0259   24.2428 N   0  0  0  0  0  0  0  0  0  0  0  0
    6.0772   -2.1629   23.7496 C   0  0  0  0  0  0  0  0  0  0  0  0
    5.1420   -2.6082   24.5560 N   0  0  0  0  0  0  0  0  0  0  0  0
   -4.8944    2.0361   34.0786 H   0  0  0  0  0  0  0  0  0  0  0  0
   -3.7177    2.5237   35.3101 H   0  0  0  0  0  0  0  0  0  0  0  0
   -4.7003    1.0739   35.5537 H   0  0  0  0  0  0  0  0  0  0  0  0
   -2.3852    0.4655   34.8897 H   0  0  0  0  0  0  0  0  0  0  0  0
   -2.5023    1.4972   33.4677 H   0  0  0  0  0  0  0  0  0  0  0  0
   -5.6638   -0.7245   34.0495 H   0  0  0  0  0  0  0  0  0  0  0  0
   -5.5408   -2.6252   32.3760 H   0  0  0  0  0  0  0  0  0  0  0  0
   -2.3477    0.2804   29.8618 H   0  0  0  0  0  0  0  0  0  0  0  0
   -0.7301    0.6451   29.6788 H   0  0  0  0  0  0  0  0  0  0  0  0
   -2.4348   -1.2539   27.8628 H   0  0  0  0  0  0  0  0  0  0  0  0
   -0.8742   -0.5480   27.3856 H   0  0  0  0  0  0  0  0  0  0  0  0
   -2.2583    0.4924   27.5967 H   0  0  0  0  0  0  0  0  0  0  0  0
   -0.2546   -2.1445   28.6698 H   0  0  0  0  0  0  0  0  0  0  0  0
    0.5003   -2.3679   30.1689 H   0  0  0  0  0  0  0  0  0  0  0  0
    1.0174    0.3027   28.7750 H   0  0  0  0  0  0  0  0  0  0  0  0
    1.8093   -0.4104   30.1887 H   0  0  0  0  0  0  0  0  0  0  0  0
    2.4991   -2.2687   28.4971 H   0  0  0  0  0  0  0  0  0  0  0  0
    3.2730   -2.6347   26.3347 H   0  0  0  0  0  0  0  0  0  0  0  0
    5.4881   -2.0319   27.9490 H   0  0  0  0  0  0  0  0  0  0  0  0
    6.2726    0.1454   26.0083 H   0  0  0  0  0  0  0  0  0  0  0  0
    7.3919   -0.5056   23.8201 H   0  0  0  0  0  0  0  0  0  0  0  0
    6.3848   -2.6252   22.8220 H   0  0  0  0  0  0  0  0  0  0  0  0
  1  2  1  0
  2  3  1  0
  3  4  2  0
  4  5  1  0
  5  6  1  0
  6  7  2  0
  7  8  1  0
  8  9  2  0
  8 10  1  0
 10 11  1  0
 11 12  1  0
 10 13  1  0
 13 14  1  0
 14 15  1  0
 15 16  1  0
 16 17  2  0
 16 18  1  0
 18 19  1  0
 18 20  1  0
 20 21  2  0
 21 22  1  0
 22 23  1  0
 23 24  2  0
  7  3  1  0
 24 20  1  0
  1 25  1  0
  1 26  1  0
  1 27  1  0
  2 28  1  0
  2 29  1  0
  4 30  1  0
  5 31  1  0
 11 32  1  0
 11 33  1  0
 12 34  1  0
 12 35  1  0
 12 36  1  0
 13 37  1  0
 13 38  1  0
 14 39  1  0
 14 40  1  0
 15 41  1  0
 18 42  1  0
 19 43  1  0
 21 44  1  0
 22 45  1  0
 23 46  1  0
M  END
>  <Energy>  (20) 
202.10350029762171

>  <compound_id>  (20) 
48741

>  <target_id>  (20) 
1

>  <reference_id>  (20) 
114

>  <inspiration_ids>  (20) 
[7, 114]

>  <energy_score>  (20) 
58.21516081478836

>  <distance_score>  (20) 
10.702990923508189

>  <path>  (20) 
/opt/xchem-fragalysis-2/maxwin/BulkDock/SCRATCH/511020/C48741-P114/C48741-P114.minimised.mol

>  <scratch_subdir>  (20) 
/opt/xchem-fragalysis-2/maxwin/BulkDock/SCRATCH/511020/C48741-P114

>  <fragmenstein_runtime>  (20) 
13.768413305282593

>  <fragmenstein_outcome>  (20) 
too moved

>  <fragmenstein_mode>  (20) 
expansion

>  <fragmenstein_error>  (20) 


$$$$
C48742-P7
     RDKit          3D

 37 39  0  0  0  0  0  0  0  0999 V2000
    1.2097   -3.5310   28.3774 O   0  0  0  0  0  0  0  0  0  0  0  0
    1.3538   -2.3419   28.2849 C   0  0  0  0  0  0  0  0  0  0  0  0
    2.5673   -1.8105   27.4504 C   0  0  0  0  0  0  0  0  0  0  0  0
    3.3166   -2.6102   26.6435 C   0  0  0  0  0  0  0  0  0  0  0  0
    4.3720   -2.2733   25.7267 C   0  0  0  0  0  0  0  0  0  0  0  0
    4.6069   -2.8925   24.5135 C   0  0  0  0  0  0  0  0  0  0  0  0
    5.6860   -2.2460   23.9790 N   0  0  0  0  0  0  0  0  0  0  0  0
    6.1110   -1.3448   24.9124 C   0  0  0  0  0  0  0  0  0  0  0  0
    5.3284   -1.3227   25.9735 N   0  0  0  0  0  0  0  0  0  0  0  0
    0.5917   -1.2383   28.8774 N   0  0  0  0  0  0  0  0  0  0  0  0
   -0.5851   -1.2395   29.6521 C   0  0  0  0  0  0  0  0  0  0  0  0
   -1.2517   -0.0922   30.1801 C   0  0  0  0  0  0  0  0  0  0  0  0
   -2.3424   -0.3672   30.9080 N   0  0  0  0  0  0  0  0  0  0  0  0
   -2.4162   -1.7153   30.8633 N   0  0  0  0  0  0  0  0  0  0  0  0
   -3.4698   -2.4099   31.6025 C   0  0  0  0  0  0  0  0  0  0  0  0
   -3.1897   -2.4771   33.1121 C   0  0  0  0  0  0  0  0  0  0  0  0
   -4.5734   -2.5578   33.7523 C   0  0  0  0  0  0  0  0  0  0  0  0
   -5.3856   -1.5795   32.9218 C   0  0  0  0  0  0  0  0  0  0  0  0
   -4.8909   -1.7973   31.4899 C   0  0  0  0  0  0  0  0  0  0  0  0
   -1.3864   -2.2706   30.1179 C   0  0  0  0  0  0  0  0  0  0  0  0
    2.7765   -0.7492   27.4807 H   0  0  0  0  0  0  0  0  0  0  0  0
    3.0256   -3.6584   26.6124 H   0  0  0  0  0  0  0  0  0  0  0  0
    4.0751   -3.6678   23.9818 H   0  0  0  0  0  0  0  0  0  0  0  0
    6.0870   -2.3993   23.0654 H   0  0  0  0  0  0  0  0  0  0  0  0
    6.9868   -0.7328   24.7674 H   0  0  0  0  0  0  0  0  0  0  0  0
    1.0454   -0.3636   28.6512 H   0  0  0  0  0  0  0  0  0  0  0  0
   -0.9651    0.9440   30.0580 H   0  0  0  0  0  0  0  0  0  0  0  0
   -3.5033   -3.4289   31.1947 H   0  0  0  0  0  0  0  0  0  0  0  0
   -2.5680   -3.3394   33.3736 H   0  0  0  0  0  0  0  0  0  0  0  0
   -2.6705   -1.5766   33.4631 H   0  0  0  0  0  0  0  0  0  0  0  0
   -4.5552   -2.2907   34.8122 H   0  0  0  0  0  0  0  0  0  0  0  0
   -4.9597   -3.5770   33.6550 H   0  0  0  0  0  0  0  0  0  0  0  0
   -6.4644   -1.7204   33.0170 H   0  0  0  0  0  0  0  0  0  0  0  0
   -5.1575   -0.5526   33.2327 H   0  0  0  0  0  0  0  0  0  0  0  0
   -4.9269   -0.8642   30.9184 H   0  0  0  0  0  0  0  0  0  0  0  0
   -5.5455   -2.5061   30.9719 H   0  0  0  0  0  0  0  0  0  0  0  0
   -1.3002   -3.3420   30.0009 H   0  0  0  0  0  0  0  0  0  0  0  0
  1  2  2  0
  2  3  1  0
  3  4  2  3
  4  5  1  0
  5  6  2  0
  6  7  1  0
  7  8  1  0
  8  9  2  0
  2 10  1  0
 10 11  1  0
 11 12  1  0
 12 13  2  0
 13 14  1  0
 14 15  1  0
 15 16  1  0
 16 17  1  0
 17 18  1  0
 18 19  1  0
 14 20  1  0
  9  5  1  0
 20 11  2  0
 19 15  1  0
  3 21  1  0
  4 22  1  0
  6 23  1  0
  7 24  1  0
  8 25  1  0
 10 26  1  0
 12 27  1  0
 15 28  1  0
 16 29  1  0
 16 30  1  0
 17 31  1  0
 17 32  1  0
 18 33  1  0
 18 34  1  0
 19 35  1  0
 19 36  1  0
 20 37  1  0
M  END
>  <Energy>  (21) 
-3.2328256282554166

>  <compound_id>  (21) 
48742

>  <target_id>  (21) 
1

>  <reference_id>  (21) 
7

>  <inspiration_ids>  (21) 
[7, 114]

>  <energy_score>  (21) 
-40.856698249567216

>  <distance_score>  (21) 
12.269806791870861

>  <path>  (21) 
/opt/xchem-fragalysis-2/maxwin/BulkDock/SCRATCH/511020/C48742-P7/C48742-P7.minimised.mol

>  <scratch_subdir>  (21) 
/opt/xchem-fragalysis-2/maxwin/BulkDock/SCRATCH/511020/C48742-P7

>  <fragmenstein_runtime>  (21) 
9.153319358825684

>  <fragmenstein_outcome>  (21) 
too moved

>  <fragmenstein_mode>  (21) 
expansion

>  <fragmenstein_error>  (21) 


$$$$
C48742-P114
     RDKit          3D

 37 39  0  0  0  0  0  0  0  0999 V2000
    0.9966   -1.0911   29.4157 O   0  0  0  0  0  0  0  0  0  0  0  0
    0.8038   -2.2123   29.0329 C   0  0  0  0  0  0  0  0  0  0  0  0
    1.8325   -2.8473   28.0501 C   0  0  0  0  0  0  0  0  0  0  0  0
    2.7834   -2.1536   27.3657 C   0  0  0  0  0  0  0  0  0  0  0  0
    3.6877   -2.6476   26.3565 C   0  0  0  0  0  0  0  0  0  0  0  0
    4.3054   -1.8776   25.3977 C   0  0  0  0  0  0  0  0  0  0  0  0
    4.9234   -2.7599   24.5541 N   0  0  0  0  0  0  0  0  0  0  0  0
    4.7254   -4.0086   25.0666 C   0  0  0  0  0  0  0  0  0  0  0  0
    3.9847   -3.9757   26.1588 N   0  0  0  0  0  0  0  0  0  0  0  0
   -0.2559   -3.1676   29.3688 N   0  0  0  0  0  0  0  0  0  0  0  0
   -1.4083   -3.0258   30.1642 C   0  0  0  0  0  0  0  0  0  0  0  0
   -2.4137   -4.0203   30.3483 C   0  0  0  0  0  0  0  0  0  0  0  0
   -3.4168   -3.6533   31.1520 N   0  0  0  0  0  0  0  0  0  0  0  0
   -3.0612   -2.4214   31.5591 N   0  0  0  0  0  0  0  0  0  0  0  0
   -3.9070   -1.7055   32.5073 C   0  0  0  0  0  0  0  0  0  0  0  0
   -5.0834   -0.9750   31.8445 C   0  0  0  0  0  0  0  0  0  0  0  0
   -6.2640   -1.0326   32.8218 C   0  0  0  0  0  0  0  0  0  0  0  0
   -5.6964   -1.6145   34.1018 C   0  0  0  0  0  0  0  0  0  0  0  0
   -4.5856   -2.5372   33.6136 C   0  0  0  0  0  0  0  0  0  0  0  0
   -1.8859   -1.9914   30.9549 C   0  0  0  0  0  0  0  0  0  0  0  0
    1.7546   -3.9141   27.8791 H   0  0  0  0  0  0  0  0  0  0  0  0
    2.8142   -1.0780   27.5293 H   0  0  0  0  0  0  0  0  0  0  0  0
    4.2687   -0.8176   25.1956 H   0  0  0  0  0  0  0  0  0  0  0  0
    5.3917   -2.5307   23.6895 H   0  0  0  0  0  0  0  0  0  0  0  0
    5.1237   -4.8985   24.5994 H   0  0  0  0  0  0  0  0  0  0  0  0
   -0.0592   -4.0515   28.9204 H   0  0  0  0  0  0  0  0  0  0  0  0
   -2.4492   -5.0094   29.9110 H   0  0  0  0  0  0  0  0  0  0  0  0
   -3.2560   -0.9625   32.9884 H   0  0  0  0  0  0  0  0  0  0  0  0
   -5.3708   -1.4371   30.8938 H   0  0  0  0  0  0  0  0  0  0  0  0
   -4.8043    0.0644   31.6458 H   0  0  0  0  0  0  0  0  0  0  0  0
   -6.7105   -0.0473   32.9837 H   0  0  0  0  0  0  0  0  0  0  0  0
   -7.0439   -1.6838   32.4140 H   0  0  0  0  0  0  0  0  0  0  0  0
   -6.4611   -2.1276   34.6802 H   0  0  0  0  0  0  0  0  0  0  0  0
   -5.2753   -0.8172   34.7257 H   0  0  0  0  0  0  0  0  0  0  0  0
   -5.0141   -3.4663   33.2215 H   0  0  0  0  0  0  0  0  0  0  0  0
   -3.8866   -2.8004   34.4134 H   0  0  0  0  0  0  0  0  0  0  0  0
   -1.4821   -1.0098   31.1595 H   0  0  0  0  0  0  0  0  0  0  0  0
  1  2  2  0
  2  3  1  0
  3  4  2  3
  4  5  1  0
  5  6  2  0
  6  7  1  0
  7  8  1  0
  8  9  2  0
  2 10  1  0
 10 11  1  0
 11 12  1  0
 12 13  2  0
 13 14  1  0
 14 15  1  0
 15 16  1  0
 16 17  1  0
 17 18  1  0
 18 19  1  0
 14 20  1  0
  9  5  1  0
 20 11  2  0
 19 15  1  0
  3 21  1  0
  4 22  1  0
  6 23  1  0
  7 24  1  0
  8 25  1  0
 10 26  1  0
 12 27  1  0
 15 28  1  0
 16 29  1  0
 16 30  1  0
 17 31  1  0
 17 32  1  0
 18 33  1  0
 18 34  1  0
 19 35  1  0
 19 36  1  0
 20 37  1  0
M  END
>  <Energy>  (22) 
-4.1444563383144413

>  <compound_id>  (22) 
48742

>  <target_id>  (22) 
1

>  <reference_id>  (22) 
114

>  <inspiration_ids>  (22) 
[7, 114]

>  <energy_score>  (22) 
-41.76832895962647

>  <distance_score>  (22) 
12.246187862116091

>  <path>  (22) 
/opt/xchem-fragalysis-2/maxwin/BulkDock/SCRATCH/511020/C48742-P114/C48742-P114.minimised.mol

>  <scratch_subdir>  (22) 
/opt/xchem-fragalysis-2/maxwin/BulkDock/SCRATCH/511020/C48742-P114

>  <fragmenstein_runtime>  (22) 
5.577186107635498

>  <fragmenstein_outcome>  (22) 
too moved

>  <fragmenstein_mode>  (22) 
expansion

>  <fragmenstein_error>  (22) 


$$$$
C17986-P7
     RDKit          3D

 42 44  0  0  0  0  0  0  0  0999 V2000
    2.3498   -2.2797   30.2378 C   0  0  0  0  0  0  0  0  0  0  0  0
    1.3360   -1.9592   29.1178 C   0  0  0  0  0  0  0  0  0  0  0  0
    0.8306   -3.2915   28.5410 C   0  0  0  0  0  0  0  0  0  0  0  0
    0.1635   -1.2747   29.7528 N   0  0  0  0  0  0  0  0  0  0  0  0
   -0.8507   -1.7768   30.6879 C   0  0  0  0  0  0  0  0  0  0  0  0
   -1.0376   -2.8796   31.1128 O   0  0  0  0  0  0  0  0  0  0  0  0
   -1.8215   -0.7456   31.1904 C   0  0  0  0  0  0  0  0  0  0  0  0
   -1.9781    0.5876   30.8243 C   0  0  0  0  0  0  0  0  0  0  0  0
   -3.0134    1.1152   31.6099 C   0  0  0  0  0  0  0  0  0  0  0  0
   -3.5213    0.2139   32.4351 N   0  0  0  0  0  0  0  0  0  0  0  0
   -2.8437   -0.9303   32.1604 N   0  0  0  0  0  0  0  0  0  0  0  0
   -3.2385   -2.1075   32.9411 C   0  0  0  0  0  0  0  0  0  0  0  0
   -2.9130   -1.9652   34.4348 C   0  0  0  0  0  0  0  0  0  0  0  0
   -4.1763   -1.4098   35.1115 C   0  0  0  0  0  0  0  0  0  0  0  0
   -5.3259   -1.5928   34.1286 C   0  0  0  0  0  0  0  0  0  0  0  0
   -4.7511   -2.4130   32.9767 C   0  0  0  0  0  0  0  0  0  0  0  0
    2.1127   -1.1318   28.0343 C   0  0  0  0  0  0  0  0  0  0  0  0
    2.5785    0.1054   28.1541 N   0  0  0  0  0  0  0  0  0  0  0  0
    3.4728    0.3011   27.1164 C   0  0  0  0  0  0  0  0  0  0  0  0
    3.5475   -0.8112   26.3242 C   0  0  0  0  0  0  0  0  0  0  0  0
    2.6409   -1.6825   26.8670 N   0  0  0  0  0  0  0  0  0  0  0  0
    3.2237   -2.8142   29.8468 H   0  0  0  0  0  0  0  0  0  0  0  0
    2.7090   -1.3612   30.7174 H   0  0  0  0  0  0  0  0  0  0  0  0
    1.9018   -2.9005   31.0223 H   0  0  0  0  0  0  0  0  0  0  0  0
    0.4415   -3.9546   29.3214 H   0  0  0  0  0  0  0  0  0  0  0  0
    1.6187   -3.8469   28.0285 H   0  0  0  0  0  0  0  0  0  0  0  0
    0.0121   -3.1163   27.8404 H   0  0  0  0  0  0  0  0  0  0  0  0
    0.0784   -0.2714   29.6798 H   0  0  0  0  0  0  0  0  0  0  0  0
   -1.4127    1.1317   30.0817 H   0  0  0  0  0  0  0  0  0  0  0  0
   -3.4142    2.1207   31.6138 H   0  0  0  0  0  0  0  0  0  0  0  0
   -2.7236   -2.9709   32.5239 H   0  0  0  0  0  0  0  0  0  0  0  0
   -2.7031   -2.9582   34.8522 H   0  0  0  0  0  0  0  0  0  0  0  0
   -2.0375   -1.3373   34.6313 H   0  0  0  0  0  0  0  0  0  0  0  0
   -4.0492   -0.3472   35.3474 H   0  0  0  0  0  0  0  0  0  0  0  0
   -4.3606   -1.9257   36.0580 H   0  0  0  0  0  0  0  0  0  0  0  0
   -6.1864   -2.0720   34.5978 H   0  0  0  0  0  0  0  0  0  0  0  0
   -5.6726   -0.6176   33.7687 H   0  0  0  0  0  0  0  0  0  0  0  0
   -4.8808   -3.4786   33.2028 H   0  0  0  0  0  0  0  0  0  0  0  0
   -5.2599   -2.2132   32.0320 H   0  0  0  0  0  0  0  0  0  0  0  0
    4.0077    1.2348   27.0043 H   0  0  0  0  0  0  0  0  0  0  0  0
    4.1015   -1.0451   25.4252 H   0  0  0  0  0  0  0  0  0  0  0  0
    2.3798   -2.5633   26.4446 H   0  0  0  0  0  0  0  0  0  0  0  0
  1  2  1  0
  2  3  1  0
  2  4  1  0
  4  5  1  0
  5  6  2  0
  5  7  1  0
  7  8  2  0
  8  9  1  0
  9 10  2  0
 10 11  1  0
 11 12  1  0
 12 13  1  0
 13 14  1  0
 14 15  1  0
 15 16  1  0
  2 17  1  0
 17 18  2  0
 18 19  1  0
 19 20  2  0
 20 21  1  0
 11  7  1  0
 16 12  1  0
 21 17  1  0
  1 22  1  0
  1 23  1  0
  1 24  1  0
  3 25  1  0
  3 26  1  0
  3 27  1  0
  4 28  1  0
  8 29  1  0
  9 30  1  0
 12 31  1  0
 13 32  1  0
 13 33  1  0
 14 34  1  0
 14 35  1  0
 15 36  1  0
 15 37  1  0
 16 38  1  0
 16 39  1  0
 19 40  1  0
 20 41  1  0
 21 42  1  0
M  END
>  <Energy>  (23) 
-0.057368447687530466

>  <compound_id>  (23) 
17986

>  <target_id>  (23) 
1

>  <reference_id>  (23) 
7

>  <inspiration_ids>  (23) 
[7, 114]

>  <energy_score>  (23) 
-14.081662339143293

>  <distance_score>  (23) 
12.650152235744596

>  <path>  (23) 
/opt/xchem-fragalysis-2/maxwin/BulkDock/SCRATCH/511020/C17986-P7/C17986-P7.minimised.mol

>  <scratch_subdir>  (23) 
/opt/xchem-fragalysis-2/maxwin/BulkDock/SCRATCH/511020/C17986-P7

>  <fragmenstein_runtime>  (23) 
13.342367887496948

>  <fragmenstein_outcome>  (23) 
too moved

>  <fragmenstein_mode>  (23) 
expansion

>  <fragmenstein_error>  (23) 


$$$$
C17986-P114
     RDKit          3D

 42 44  0  0  0  0  0  0  0  0999 V2000
    2.5512   -2.2719   30.1149 C   0  0  0  0  0  0  0  0  0  0  0  0
    1.5247   -1.9423   29.0091 C   0  0  0  0  0  0  0  0  0  0  0  0
    1.0073   -3.2700   28.4334 C   0  0  0  0  0  0  0  0  0  0  0  0
    0.3628   -1.2587   29.6632 N   0  0  0  0  0  0  0  0  0  0  0  0
   -0.6446   -1.7652   30.6009 C   0  0  0  0  0  0  0  0  0  0  0  0
   -0.8347   -2.8722   31.0149 O   0  0  0  0  0  0  0  0  0  0  0  0
   -1.5879   -0.7354   31.1447 C   0  0  0  0  0  0  0  0  0  0  0  0
   -1.6137    0.6464   30.9970 C   0  0  0  0  0  0  0  0  0  0  0  0
   -2.6534    1.1282   31.8111 C   0  0  0  0  0  0  0  0  0  0  0  0
   -3.2802    0.1532   32.4529 N   0  0  0  0  0  0  0  0  0  0  0  0
   -2.6877   -0.9811   32.0025 N   0  0  0  0  0  0  0  0  0  0  0  0
   -3.2549   -2.2468   32.4768 C   0  0  0  0  0  0  0  0  0  0  0  0
   -2.6552   -2.6711   33.8300 C   0  0  0  0  0  0  0  0  0  0  0  0
   -3.8429   -3.0350   34.7253 C   0  0  0  0  0  0  0  0  0  0  0  0
   -4.9674   -2.1539   34.2220 C   0  0  0  0  0  0  0  0  0  0  0  0
   -4.7894   -2.2367   32.7169 C   0  0  0  0  0  0  0  0  0  0  0  0
    2.2916   -1.1127   27.9209 C   0  0  0  0  0  0  0  0  0  0  0  0
    2.7480    0.1286   28.0335 N   0  0  0  0  0  0  0  0  0  0  0  0
    3.6336    0.3281   26.9894 C   0  0  0  0  0  0  0  0  0  0  0  0
    3.7123   -0.7859   26.1997 C   0  0  0  0  0  0  0  0  0  0  0  0
    2.8189   -1.6642   26.7532 N   0  0  0  0  0  0  0  0  0  0  0  0
    2.1105   -2.8937   30.9027 H   0  0  0  0  0  0  0  0  0  0  0  0
    2.9207   -1.3569   30.5934 H   0  0  0  0  0  0  0  0  0  0  0  0
    3.4176   -2.8088   29.7107 H   0  0  0  0  0  0  0  0  0  0  0  0
    1.7838   -3.8218   27.9001 H   0  0  0  0  0  0  0  0  0  0  0  0
    0.1728   -3.0889   27.7535 H   0  0  0  0  0  0  0  0  0  0  0  0
    0.6354   -3.9391   29.2172 H   0  0  0  0  0  0  0  0  0  0  0  0
    0.1789   -0.2838   29.4747 H   0  0  0  0  0  0  0  0  0  0  0  0
   -0.9396    1.2530   30.4094 H   0  0  0  0  0  0  0  0  0  0  0  0
   -2.9642    2.1524   31.9723 H   0  0  0  0  0  0  0  0  0  0  0  0
   -3.0525   -2.9880   31.7003 H   0  0  0  0  0  0  0  0  0  0  0  0
   -1.9750   -3.5221   33.7181 H   0  0  0  0  0  0  0  0  0  0  0  0
   -2.0828   -1.8565   34.2904 H   0  0  0  0  0  0  0  0  0  0  0  0
   -4.0962   -4.0928   34.5873 H   0  0  0  0  0  0  0  0  0  0  0  0
   -3.6187   -2.8682   35.7825 H   0  0  0  0  0  0  0  0  0  0  0  0
   -5.9532   -2.4962   34.5324 H   0  0  0  0  0  0  0  0  0  0  0  0
   -4.8351   -1.1243   34.5729 H   0  0  0  0  0  0  0  0  0  0  0  0
   -5.1986   -3.1873   32.3609 H   0  0  0  0  0  0  0  0  0  0  0  0
   -5.3348   -1.4402   32.2133 H   0  0  0  0  0  0  0  0  0  0  0  0
    4.1582    1.2667   26.8701 H   0  0  0  0  0  0  0  0  0  0  0  0
    4.2589   -1.0171   25.2957 H   0  0  0  0  0  0  0  0  0  0  0  0
    2.5636   -2.5494   26.3368 H   0  0  0  0  0  0  0  0  0  0  0  0
  1  2  1  0
  2  3  1  0
  2  4  1  0
  4  5  1  0
  5  6  2  0
  5  7  1  0
  7  8  2  0
  8  9  1  0
  9 10  2  0
 10 11  1  0
 11 12  1  0
 12 13  1  0
 13 14  1  0
 14 15  1  0
 15 16  1  0
  2 17  1  0
 17 18  2  0
 18 19  1  0
 19 20  2  0
 20 21  1  0
 11  7  1  0
 16 12  1  0
 21 17  1  0
  1 22  1  0
  1 23  1  0
  1 24  1  0
  3 25  1  0
  3 26  1  0
  3 27  1  0
  4 28  1  0
  8 29  1  0
  9 30  1  0
 12 31  1  0
 13 32  1  0
 13 33  1  0
 14 34  1  0
 14 35  1  0
 15 36  1  0
 15 37  1  0
 16 38  1  0
 16 39  1  0
 19 40  1  0
 20 41  1  0
 21 42  1  0
M  END
>  <Energy>  (24) 
-1.9120701226214907

>  <compound_id>  (24) 
17986

>  <target_id>  (24) 
1

>  <reference_id>  (24) 
114

>  <inspiration_ids>  (24) 
[7, 114]

>  <energy_score>  (24) 
-15.936364014078038

>  <distance_score>  (24) 
12.65960363683639

>  <path>  (24) 
/opt/xchem-fragalysis-2/maxwin/BulkDock/SCRATCH/511020/C17986-P114/C17986-P114.minimised.mol

>  <scratch_subdir>  (24) 
/opt/xchem-fragalysis-2/maxwin/BulkDock/SCRATCH/511020/C17986-P114

>  <fragmenstein_runtime>  (24) 
17.551396131515503

>  <fragmenstein_outcome>  (24) 
too moved

>  <fragmenstein_mode>  (24) 
expansion

>  <fragmenstein_error>  (24) 


$$$$
C17987-P7
     RDKit          3D

 46 48  0  0  0  0  0  0  0  0999 V2000
    1.1817   -2.3225   30.2322 O   0  0  0  0  0  0  0  0  0  0  0  0
    0.7318   -1.2535   29.9244 C   0  0  0  0  0  0  0  0  0  0  0  0
    1.4193   -0.4675   28.7380 C   0  0  0  0  0  0  0  0  0  0  0  0
    3.2689   -0.6789   28.7182 S   0  0  0  0  0  0  0  0  0  0  0  0
    3.6841   -0.2632   26.9558 C   0  0  0  0  0  0  0  0  0  0  0  0
    5.1781   -0.1252   26.7159 C   0  0  0  0  0  0  0  0  0  0  0  0
    5.8999    0.9887   26.7172 N   0  0  0  0  0  0  0  0  0  0  0  0
    7.2099    0.6002   26.5489 C   0  0  0  0  0  0  0  0  0  0  0  0
    7.2925   -0.7579   26.3972 C   0  0  0  0  0  0  0  0  0  0  0  0
    5.9925   -1.1973   26.4237 N   0  0  0  0  0  0  0  0  0  0  0  0
   -0.4264   -0.5238   30.4407 N   0  0  0  0  0  0  0  0  0  0  0  0
   -1.4524   -0.9139   31.4262 C   0  0  0  0  0  0  0  0  0  0  0  0
   -2.5208    0.1500   31.7712 C   0  0  0  0  0  0  0  0  0  0  0  0
   -3.6780   -0.2898   32.6753 C   0  0  0  0  0  0  0  0  0  0  0  0
   -4.2671   -1.5734   32.7846 C   0  0  0  0  0  0  0  0  0  0  0  0
   -5.2665   -1.4556   33.7175 C   0  0  0  0  0  0  0  0  0  0  0  0
   -5.3167   -0.1376   34.0630 N   0  0  0  0  0  0  0  0  0  0  0  0
   -6.2539    0.4717   34.9992 C   0  0  0  0  0  0  0  0  0  0  0  0
   -6.1247   -0.0438   36.4480 C   0  0  0  0  0  0  0  0  0  0  0  0
   -7.5299   -0.4798   36.8804 C   0  0  0  0  0  0  0  0  0  0  0  0
   -8.4643    0.2925   35.9714 C   0  0  0  0  0  0  0  0  0  0  0  0
   -7.7324    0.2588   34.6354 C   0  0  0  0  0  0  0  0  0  0  0  0
   -4.3679    0.6003   33.4211 N   0  0  0  0  0  0  0  0  0  0  0  0
    1.2097    0.6027   28.8109 H   0  0  0  0  0  0  0  0  0  0  0  0
    1.0019   -0.8610   27.8064 H   0  0  0  0  0  0  0  0  0  0  0  0
    3.2745   -1.0463   26.3098 H   0  0  0  0  0  0  0  0  0  0  0  0
    3.1996    0.6860   26.7056 H   0  0  0  0  0  0  0  0  0  0  0  0
    8.0155    1.3219   26.5563 H   0  0  0  0  0  0  0  0  0  0  0  0
    8.1209   -1.4361   26.2612 H   0  0  0  0  0  0  0  0  0  0  0  0
    5.6948   -2.1649   26.3315 H   0  0  0  0  0  0  0  0  0  0  0  0
   -0.4637    0.3903   30.0042 H   0  0  0  0  0  0  0  0  0  0  0  0
   -1.9268   -1.8135   31.0178 H   0  0  0  0  0  0  0  0  0  0  0  0
   -0.9213   -1.2277   32.3320 H   0  0  0  0  0  0  0  0  0  0  0  0
   -2.0193    1.0088   32.2343 H   0  0  0  0  0  0  0  0  0  0  0  0
   -2.9532    0.5054   30.8295 H   0  0  0  0  0  0  0  0  0  0  0  0
   -3.9957   -2.4639   32.2385 H   0  0  0  0  0  0  0  0  0  0  0  0
   -5.9492   -2.1717   34.1402 H   0  0  0  0  0  0  0  0  0  0  0  0
   -6.0394    1.5489   34.9937 H   0  0  0  0  0  0  0  0  0  0  0  0
   -5.4055   -0.8611   36.5642 H   0  0  0  0  0  0  0  0  0  0  0  0
   -5.7833    0.7766   37.0912 H   0  0  0  0  0  0  0  0  0  0  0  0
   -7.6592   -1.5508   36.7055 H   0  0  0  0  0  0  0  0  0  0  0  0
   -7.7161   -0.2840   37.9401 H   0  0  0  0  0  0  0  0  0  0  0  0
   -8.5698    1.3264   36.3201 H   0  0  0  0  0  0  0  0  0  0  0  0
   -9.4589   -0.1580   35.9223 H   0  0  0  0  0  0  0  0  0  0  0  0
   -8.0921    1.0337   33.9508 H   0  0  0  0  0  0  0  0  0  0  0  0
   -7.8914   -0.7117   34.1512 H   0  0  0  0  0  0  0  0  0  0  0  0
  1  2  2  0
  2  3  1  0
  3  4  1  0
  4  5  1  0
  5  6  1  0
  6  7  2  0
  7  8  1  0
  8  9  2  0
  9 10  1  0
  2 11  1  0
 11 12  1  0
 12 13  1  0
 13 14  1  0
 14 15  1  0
 15 16  2  0
 16 17  1  0
 17 18  1  0
 18 19  1  0
 19 20  1  0
 20 21  1  0
 21 22  1  0
 17 23  1  0
 10  6  1  0
 23 14  2  0
 22 18  1  0
  3 24  1  0
  3 25  1  0
  5 26  1  0
  5 27  1  0
  8 28  1  0
  9 29  1  0
 10 30  1  0
 11 31  1  0
 12 32  1  0
 12 33  1  0
 13 34  1  0
 13 35  1  0
 15 36  1  0
 16 37  1  0
 18 38  1  0
 19 39  1  0
 19 40  1  0
 20 41  1  0
 20 42  1  0
 21 43  1  0
 21 44  1  0
 22 45  1  0
 22 46  1  0
M  END
>  <Energy>  (25) 
56.098015465241772

>  <compound_id>  (25) 
17987

>  <target_id>  (25) 
1

>  <reference_id>  (25) 
7

>  <inspiration_ids>  (25) 
[7, 114]

>  <energy_score>  (25) 
-21.408934840500393

>  <distance_score>  (25) 
10.16255645848758

>  <path>  (25) 
/opt/xchem-fragalysis-2/maxwin/BulkDock/SCRATCH/511020/C17987-P7/C17987-P7.minimised.mol

>  <scratch_subdir>  (25) 
/opt/xchem-fragalysis-2/maxwin/BulkDock/SCRATCH/511020/C17987-P7

>  <fragmenstein_runtime>  (25) 
15.983679056167603

>  <fragmenstein_outcome>  (25) 
too moved

>  <fragmenstein_mode>  (25) 
expansion

>  <fragmenstein_error>  (25) 


$$$$
C17987-P114
     RDKit          3D

 46 48  0  0  0  0  0  0  0  0999 V2000
   -0.7727    1.1519   32.0932 O   0  0  0  0  0  0  0  0  0  0  0  0
   -1.4148    0.2409   31.6525 C   0  0  0  0  0  0  0  0  0  0  0  0
   -0.9295   -0.4827   30.3276 C   0  0  0  0  0  0  0  0  0  0  0  0
    0.8112   -0.0100   29.8167 S   0  0  0  0  0  0  0  0  0  0  0  0
    1.0525   -1.0553   28.3140 C   0  0  0  0  0  0  0  0  0  0  0  0
    2.3922   -0.9258   27.5999 C   0  0  0  0  0  0  0  0  0  0  0  0
    2.9807   -1.8672   26.8806 N   0  0  0  0  0  0  0  0  0  0  0  0
    4.0675   -1.2837   26.2744 C   0  0  0  0  0  0  0  0  0  0  0  0
    4.2182    0.0037   26.7194 C   0  0  0  0  0  0  0  0  0  0  0  0
    3.1386    0.2289   27.5296 N   0  0  0  0  0  0  0  0  0  0  0  0
   -2.6449   -0.3850   32.1462 N   0  0  0  0  0  0  0  0  0  0  0  0
   -3.4189   -0.1540   33.3866 C   0  0  0  0  0  0  0  0  0  0  0  0
   -4.9541   -0.3001   33.2690 C   0  0  0  0  0  0  0  0  0  0  0  0
   -5.7799   -0.1760   34.5416 C   0  0  0  0  0  0  0  0  0  0  0  0
   -5.3830   -0.2432   35.8977 C   0  0  0  0  0  0  0  0  0  0  0  0
   -6.5377   -0.0999   36.6354 C   0  0  0  0  0  0  0  0  0  0  0  0
   -7.5493    0.0793   35.7381 N   0  0  0  0  0  0  0  0  0  0  0  0
   -8.9561    0.3181   36.0203 C   0  0  0  0  0  0  0  0  0  0  0  0
   -9.2763    1.2944   37.1722 C   0  0  0  0  0  0  0  0  0  0  0  0
  -10.4803    0.6958   37.9176 C   0  0  0  0  0  0  0  0  0  0  0  0
  -11.0060   -0.4107   37.0187 C   0  0  0  0  0  0  0  0  0  0  0  0
   -9.7368   -0.9459   36.3808 C   0  0  0  0  0  0  0  0  0  0  0  0
   -7.1129   -0.0074   34.4561 N   0  0  0  0  0  0  0  0  0  0  0  0
   -1.6151   -0.2072   29.5210 H   0  0  0  0  0  0  0  0  0  0  0  0
   -0.9476   -1.5643   30.4905 H   0  0  0  0  0  0  0  0  0  0  0  0
    0.9187   -2.1013   28.6090 H   0  0  0  0  0  0  0  0  0  0  0  0
    0.2617   -0.7948   27.6044 H   0  0  0  0  0  0  0  0  0  0  0  0
    4.6814   -1.8267   25.5701 H   0  0  0  0  0  0  0  0  0  0  0  0
    4.9608    0.7599   26.5279 H   0  0  0  0  0  0  0  0  0  0  0  0
    2.9187    1.0845   28.0198 H   0  0  0  0  0  0  0  0  0  0  0  0
   -2.8645   -1.1864   31.5666 H   0  0  0  0  0  0  0  0  0  0  0  0
   -3.0306   -0.8755   34.1138 H   0  0  0  0  0  0  0  0  0  0  0  0
   -3.1573    0.8446   33.7540 H   0  0  0  0  0  0  0  0  0  0  0  0
   -5.3144    0.4666   32.5739 H   0  0  0  0  0  0  0  0  0  0  0  0
   -5.1817   -1.2741   32.8170 H   0  0  0  0  0  0  0  0  0  0  0  0
   -4.3881   -0.3820   36.2976 H   0  0  0  0  0  0  0  0  0  0  0  0
   -6.7063   -0.0956   37.7033 H   0  0  0  0  0  0  0  0  0  0  0  0
   -9.3829    0.7600   35.1130 H   0  0  0  0  0  0  0  0  0  0  0  0
   -8.4446    1.4518   37.8657 H   0  0  0  0  0  0  0  0  0  0  0  0
   -9.5346    2.2779   36.7616 H   0  0  0  0  0  0  0  0  0  0  0  0
  -10.1441    0.2738   38.8723 H   0  0  0  0  0  0  0  0  0  0  0  0
  -11.2437    1.4483   38.1371 H   0  0  0  0  0  0  0  0  0  0  0  0
  -11.6693    0.0122   36.2567 H   0  0  0  0  0  0  0  0  0  0  0  0
  -11.5538   -1.1766   37.5744 H   0  0  0  0  0  0  0  0  0  0  0  0
   -9.9335   -1.5856   35.5165 H   0  0  0  0  0  0  0  0  0  0  0  0
   -9.1825   -1.5165   37.1295 H   0  0  0  0  0  0  0  0  0  0  0  0
  1  2  2  0
  2  3  1  0
  3  4  1  0
  4  5  1  0
  5  6  1  0
  6  7  2  0
  7  8  1  0
  8  9  2  0
  9 10  1  0
  2 11  1  0
 11 12  1  0
 12 13  1  0
 13 14  1  0
 14 15  1  0
 15 16  2  0
 16 17  1  0
 17 18  1  0
 18 19  1  0
 19 20  1  0
 20 21  1  0
 21 22  1  0
 17 23  1  0
 10  6  1  0
 23 14  2  0
 22 18  1  0
  3 24  1  0
  3 25  1  0
  5 26  1  0
  5 27  1  0
  8 28  1  0
  9 29  1  0
 10 30  1  0
 11 31  1  0
 12 32  1  0
 12 33  1  0
 13 34  1  0
 13 35  1  0
 15 36  1  0
 16 37  1  0
 18 38  1  0
 19 39  1  0
 19 40  1  0
 20 41  1  0
 20 42  1  0
 21 43  1  0
 21 44  1  0
 22 45  1  0
 22 46  1  0
M  END
>  <Energy>  (26) 
54.989596021270415

>  <compound_id>  (26) 
17987

>  <target_id>  (26) 
1

>  <reference_id>  (26) 
114

>  <inspiration_ids>  (26) 
[7, 114]

>  <energy_score>  (26) 
-22.517354284471025

>  <distance_score>  (26) 
10.04149585189707

>  <path>  (26) 
/opt/xchem-fragalysis-2/maxwin/BulkDock/SCRATCH/511020/C17987-P114/C17987-P114.minimised.mol

>  <scratch_subdir>  (26) 
/opt/xchem-fragalysis-2/maxwin/BulkDock/SCRATCH/511020/C17987-P114

>  <fragmenstein_runtime>  (26) 
19.844090223312378

>  <fragmenstein_outcome>  (26) 
too moved

>  <fragmenstein_mode>  (26) 
expansion

>  <fragmenstein_error>  (26) 


$$$$
C17988-P7
     RDKit          3D

 43 45  0  0  0  0  0  0  0  0999 V2000
   -0.2817   -5.3218   17.6546 C   0  0  0  0  0  0  0  0  0  0  0  0
    0.7891   -4.5460   18.4674 C   0  0  0  0  0  0  0  0  0  0  0  0
    0.6190   -4.8407   20.0387 C   0  0  0  0  0  0  0  0  0  0  0  0
    0.6148   -3.7048   21.2455 N   0  0  0  0  0  0  0  0  0  0  0  0
   -0.7874   -2.4215   22.4062 S   0  0  0  0  0  0  0  0  0  0  0  0
   -0.9898   -3.2889   23.4960 O   0  0  0  0  0  0  0  0  0  0  0  0
    0.4389   -1.8883   22.7120 O   0  0  0  0  0  0  0  0  0  0  0  0
   -2.9127   -2.2327   22.9394 C   0  0  0  0  0  0  0  0  0  0  0  0
   -3.4375   -2.8678   24.2057 C   0  0  0  0  0  0  0  0  0  0  0  0
   -4.7049   -2.7237   24.5389 N   0  0  0  0  0  0  0  0  0  0  0  0
   -5.2487   -2.6478   23.3403 N   0  0  0  0  0  0  0  0  0  0  0  0
   -6.7130   -2.7852   23.2994 C   0  0  0  0  0  0  0  0  0  0  0  0
   -7.1795   -4.2118   23.6798 C   0  0  0  0  0  0  0  0  0  0  0  0
   -8.1084   -4.0885   24.9055 C   0  0  0  0  0  0  0  0  0  0  0  0
   -7.7641   -2.7532   25.5363 C   0  0  0  0  0  0  0  0  0  0  0  0
   -7.4570   -1.8763   24.3216 C   0  0  0  0  0  0  0  0  0  0  0  0
   -4.2302   -2.4602   22.3250 C   0  0  0  0  0  0  0  0  0  0  0  0
    2.1270   -4.9491   17.8310 C   0  0  0  0  0  0  0  0  0  0  0  0
    2.8346   -6.0486   18.0122 N   0  0  0  0  0  0  0  0  0  0  0  0
    3.8527   -6.0052   17.0882 C   0  0  0  0  0  0  0  0  0  0  0  0
    3.7550   -4.8766   16.3155 C   0  0  0  0  0  0  0  0  0  0  0  0
    2.7047   -4.1785   16.8388 N   0  0  0  0  0  0  0  0  0  0  0  0
   -0.2378   -6.3969   17.8635 H   0  0  0  0  0  0  0  0  0  0  0  0
   -1.2906   -4.9656   17.8747 H   0  0  0  0  0  0  0  0  0  0  0  0
   -0.1323   -5.1903   16.5759 H   0  0  0  0  0  0  0  0  0  0  0  0
    0.6090   -3.4992   18.2158 H   0  0  0  0  0  0  0  0  0  0  0  0
    1.3950   -5.5485   20.3524 H   0  0  0  0  0  0  0  0  0  0  0  0
   -0.2451   -5.4473   20.0217 H   0  0  0  0  0  0  0  0  0  0  0  0
    1.3505   -3.7869   21.9657 H   0  0  0  0  0  0  0  0  0  0  0  0
   -2.9460   -3.5584   24.8518 H   0  0  0  0  0  0  0  0  0  0  0  0
   -7.0039   -2.5285   22.2748 H   0  0  0  0  0  0  0  0  0  0  0  0
   -7.7227   -4.6746   22.8481 H   0  0  0  0  0  0  0  0  0  0  0  0
   -6.3358   -4.8715   23.9141 H   0  0  0  0  0  0  0  0  0  0  0  0
   -9.1525   -4.0852   24.5703 H   0  0  0  0  0  0  0  0  0  0  0  0
   -7.9825   -4.9237   25.6007 H   0  0  0  0  0  0  0  0  0  0  0  0
   -6.8833   -2.8480   26.1799 H   0  0  0  0  0  0  0  0  0  0  0  0
   -8.5850   -2.3529   26.1381 H   0  0  0  0  0  0  0  0  0  0  0  0
   -8.4039   -1.5485   23.8736 H   0  0  0  0  0  0  0  0  0  0  0  0
   -6.8951   -0.9787   24.5961 H   0  0  0  0  0  0  0  0  0  0  0  0
   -4.6146   -2.5002   21.3176 H   0  0  0  0  0  0  0  0  0  0  0  0
    4.5824   -6.8005   17.0182 H   0  0  0  0  0  0  0  0  0  0  0  0
    4.3361   -4.4968   15.4899 H   0  0  0  0  0  0  0  0  0  0  0  0
    2.3636   -3.2815   16.5214 H   0  0  0  0  0  0  0  0  0  0  0  0
  1  2  1  0
  2  3  1  0
  3  4  1  0
  4  5  1  0
  5  6  2  0
  5  7  2  0
  5  8  1  0
  8  9  1  0
  9 10  2  0
 10 11  1  0
 11 12  1  0
 12 13  1  0
 13 14  1  0
 14 15  1  0
 15 16  1  0
 11 17  1  0
  2 18  1  0
 18 19  2  0
 19 20  1  0
 20 21  2  0
 21 22  1  0
 17  8  2  0
 22 18  1  0
 16 12  1  0
  1 23  1  0
  1 24  1  0
  1 25  1  0
  2 26  1  0
  3 27  1  0
  3 28  1  0
  4 29  1  0
  9 30  1  0
 12 31  1  0
 13 32  1  0
 13 33  1  0
 14 34  1  0
 14 35  1  0
 15 36  1  0
 15 37  1  0
 16 38  1  0
 16 39  1  0
 17 40  1  0
 20 41  1  0
 21 42  1  0
 22 43  1  0
M  END
>  <Energy>  (27) 
341.76166853691018

>  <compound_id>  (27) 
17988

>  <target_id>  (27) 
1

>  <reference_id>  (27) 
7

>  <inspiration_ids>  (27) 
[7, 114]

>  <energy_score>  (27) 
332.6795933042252

>  <distance_score>  (27) 
13.927331927678933

>  <path>  (27) 
/opt/xchem-fragalysis-2/maxwin/BulkDock/SCRATCH/511020/C17988-P7/C17988-P7.minimised.mol

>  <scratch_subdir>  (27) 
/opt/xchem-fragalysis-2/maxwin/BulkDock/SCRATCH/511020/C17988-P7

>  <fragmenstein_runtime>  (27) 
8.998027086257935

>  <fragmenstein_outcome>  (27) 
too moved

>  <fragmenstein_mode>  (27) 
expansion

>  <fragmenstein_error>  (27) 


$$$$
C17988-P114
     RDKit          3D

 43 45  0  0  0  0  0  0  0  0999 V2000
    5.0235   -0.2534   22.0003 C   0  0  0  0  0  0  0  0  0  0  0  0
    5.1754   -1.6787   22.4702 C   0  0  0  0  0  0  0  0  0  0  0  0
    3.9964   -2.1676   23.8888 C   0  0  0  0  0  0  0  0  0  0  0  0
    3.5156   -1.0941   25.0893 N   0  0  0  0  0  0  0  0  0  0  0  0
    2.9742   -1.3680   26.7611 S   0  0  0  0  0  0  0  0  0  0  0  0
    3.2912   -2.7263   27.1357 O   0  0  0  0  0  0  0  0  0  0  0  0
    3.5935   -0.2555   27.4673 O   0  0  0  0  0  0  0  0  0  0  0  0
    1.2943   -1.2013   27.4813 C   0  0  0  0  0  0  0  0  0  0  0  0
    0.5474   -0.0107   27.6771 C   0  0  0  0  0  0  0  0  0  0  0  0
   -0.5912   -0.1793   28.3827 N   0  0  0  0  0  0  0  0  0  0  0  0
   -0.5240   -1.4590   28.8127 N   0  0  0  0  0  0  0  0  0  0  0  0
   -1.5237   -1.9998   29.7392 C   0  0  0  0  0  0  0  0  0  0  0  0
   -1.2097   -1.7925   31.2247 C   0  0  0  0  0  0  0  0  0  0  0  0
   -2.5363   -2.0689   31.9638 C   0  0  0  0  0  0  0  0  0  0  0  0
   -3.6451   -1.9626   30.9180 C   0  0  0  0  0  0  0  0  0  0  0  0
   -2.9555   -1.4273   29.6615 C   0  0  0  0  0  0  0  0  0  0  0  0
    0.5756   -2.1132   28.2733 C   0  0  0  0  0  0  0  0  0  0  0  0
    6.0699   -2.4154   20.8775 C   0  0  0  0  0  0  0  0  0  0  0  0
    5.6655   -2.8233   19.5763 N   0  0  0  0  0  0  0  0  0  0  0  0
    6.0367   -1.4688   18.3135 C   0  0  0  0  0  0  0  0  0  0  0  0
    7.0709   -0.7230   19.0275 C   0  0  0  0  0  0  0  0  0  0  0  0
    7.2275   -1.3284   20.2862 N   0  0  0  0  0  0  0  0  0  0  0  0
    5.7131   -0.0314   21.2742 H   0  0  0  0  0  0  0  0  0  0  0  0
    4.1708    0.2101   21.5724 H   0  0  0  0  0  0  0  0  0  0  0  0
    5.0425    0.5296   22.6379 H   0  0  0  0  0  0  0  0  0  0  0  0
    5.8505   -1.9288   23.2290 H   0  0  0  0  0  0  0  0  0  0  0  0
    3.1096   -2.6299   23.4666 H   0  0  0  0  0  0  0  0  0  0  0  0
    4.4994   -2.8658   24.5502 H   0  0  0  0  0  0  0  0  0  0  0  0
    3.4958   -0.1458   24.7049 H   0  0  0  0  0  0  0  0  0  0  0  0
    0.7983    0.9839   27.3306 H   0  0  0  0  0  0  0  0  0  0  0  0
   -1.5590   -3.0778   29.5373 H   0  0  0  0  0  0  0  0  0  0  0  0
   -0.4075   -2.4510   31.5736 H   0  0  0  0  0  0  0  0  0  0  0  0
   -0.8909   -0.7596   31.4128 H   0  0  0  0  0  0  0  0  0  0  0  0
   -2.5297   -3.0706   32.4076 H   0  0  0  0  0  0  0  0  0  0  0  0
   -2.6788   -1.3490   32.7766 H   0  0  0  0  0  0  0  0  0  0  0  0
   -4.4623   -1.3122   31.2442 H   0  0  0  0  0  0  0  0  0  0  0  0
   -4.0652   -2.9556   30.7204 H   0  0  0  0  0  0  0  0  0  0  0  0
   -2.9391   -0.3306   29.6933 H   0  0  0  0  0  0  0  0  0  0  0  0
   -3.4799   -1.7184   28.7482 H   0  0  0  0  0  0  0  0  0  0  0  0
    0.8031   -3.1371   28.5346 H   0  0  0  0  0  0  0  0  0  0  0  0
    5.2981   -1.2476   17.5371 H   0  0  0  0  0  0  0  0  0  0  0  0
    7.6107    0.0838   18.6351 H   0  0  0  0  0  0  0  0  0  0  0  0
    7.8306   -0.8508   20.9035 H   0  0  0  0  0  0  0  0  0  0  0  0
  1  2  1  0
  2  3  1  0
  3  4  1  0
  4  5  1  0
  5  6  2  0
  5  7  2  0
  5  8  1  0
  8  9  1  0
  9 10  2  0
 10 11  1  0
 11 12  1  0
 12 13  1  0
 13 14  1  0
 14 15  1  0
 15 16  1  0
 11 17  1  0
  2 18  1  0
 18 19  2  0
 19 20  1  0
 20 21  2  0
 21 22  1  0
 17  8  2  0
 22 18  1  0
 16 12  1  0
  1 23  1  0
  1 24  1  0
  1 25  1  0
  2 26  1  0
  3 27  1  0
  3 28  1  0
  4 29  1  0
  9 30  1  0
 12 31  1  0
 13 32  1  0
 13 33  1  0
 14 34  1  0
 14 35  1  0
 15 36  1  0
 15 37  1  0
 16 38  1  0
 16 39  1  0
 17 40  1  0
 20 41  1  0
 21 42  1  0
 22 43  1  0
M  END
>  <Energy>  (28) 
305.65015962027644

>  <compound_id>  (28) 
17988

>  <target_id>  (28) 
1

>  <reference_id>  (28) 
114

>  <inspiration_ids>  (28) 
[7, 114]

>  <energy_score>  (28) 
296.5680843875846

>  <distance_score>  (28) 
12.591207956726048

>  <path>  (28) 
/opt/xchem-fragalysis-2/maxwin/BulkDock/SCRATCH/511020/C17988-P114/C17988-P114.minimised.mol

>  <scratch_subdir>  (28) 
/opt/xchem-fragalysis-2/maxwin/BulkDock/SCRATCH/511020/C17988-P114

>  <fragmenstein_runtime>  (28) 
8.371794939041138

>  <fragmenstein_outcome>  (28) 
too moved

>  <fragmenstein_mode>  (28) 
expansion

>  <fragmenstein_error>  (28) 


$$$$
C17989-P7
     RDKit          3D

 33 35  0  0  0  0  0  0  0  0999 V2000
   -3.8463   -3.0976   23.5799 O   0  0  0  0  0  0  0  0  0  0  0  0
   -2.9827   -2.6745   24.2688 C   0  0  0  0  0  0  0  0  0  0  0  0
   -3.3436   -2.3963   26.1837 N   0  0  0  0  0  0  0  0  0  0  0  0
   -4.8179   -2.7973   27.2431 C   0  0  0  0  0  0  0  0  0  0  0  0
   -6.1892   -3.3712   27.1536 C   0  0  0  0  0  0  0  0  0  0  0  0
   -7.0917   -3.1501   28.1967 C   0  0  0  0  0  0  0  0  0  0  0  0
   -6.3866   -3.6530   29.1831 N   0  0  0  0  0  0  0  0  0  0  0  0
   -5.0740   -3.1411   28.9702 N   0  0  0  0  0  0  0  0  0  0  0  0
   -4.5739   -2.9277   30.5947 C   0  0  0  0  0  0  0  0  0  0  0  0
   -3.1228   -2.5841   31.0572 C   0  0  0  0  0  0  0  0  0  0  0  0
   -3.1784   -2.8620   32.5887 C   0  0  0  0  0  0  0  0  0  0  0  0
   -4.6550   -2.9435   33.0095 C   0  0  0  0  0  0  0  0  0  0  0  0
   -5.3911   -2.3149   31.8242 C   0  0  0  0  0  0  0  0  0  0  0  0
   -1.3054   -2.5096   23.1967 C   0  0  0  0  0  0  0  0  0  0  0  0
   -0.5822   -2.2858   21.9770 N   0  0  0  0  0  0  0  0  0  0  0  0
    0.7669   -3.4417   21.4460 C   0  0  0  0  0  0  0  0  0  0  0  0
    1.1032   -4.1264   22.5472 C   0  0  0  0  0  0  0  0  0  0  0  0
    0.3878   -2.9491   22.9585 N   0  0  0  0  0  0  0  0  0  0  0  0
   -2.4870   -2.1157   26.6503 H   0  0  0  0  0  0  0  0  0  0  0  0
   -6.1368   -4.4712   27.2422 H   0  0  0  0  0  0  0  0  0  0  0  0
   -8.1730   -3.1636   28.2176 H   0  0  0  0  0  0  0  0  0  0  0  0
   -4.8255   -3.9553   30.8941 H   0  0  0  0  0  0  0  0  0  0  0  0
   -2.8968   -1.5219   30.9072 H   0  0  0  0  0  0  0  0  0  0  0  0
   -2.3064   -3.1396   30.5883 H   0  0  0  0  0  0  0  0  0  0  0  0
   -2.6697   -3.8029   32.8263 H   0  0  0  0  0  0  0  0  0  0  0  0
   -2.6590   -2.0632   33.1295 H   0  0  0  0  0  0  0  0  0  0  0  0
   -4.8429   -2.4142   33.9487 H   0  0  0  0  0  0  0  0  0  0  0  0
   -4.9349   -3.9925   33.1498 H   0  0  0  0  0  0  0  0  0  0  0  0
   -5.2256   -1.2572   32.0295 H   0  0  0  0  0  0  0  0  0  0  0  0
   -6.4660   -2.4503   31.7880 H   0  0  0  0  0  0  0  0  0  0  0  0
    1.1538   -3.5064   20.4323 H   0  0  0  0  0  0  0  0  0  0  0  0
    2.0732   -4.5028   22.8425 H   0  0  0  0  0  0  0  0  0  0  0  0
    0.9978   -2.1887   23.1138 H   0  0  0  0  0  0  0  0  0  0  0  0
  1  2  2  0
  2  3  1  0
  3  4  1  0
  4  5  2  0
  5  6  1  0
  6  7  2  0
  7  8  1  0
  8  9  1  0
  9 10  1  0
 10 11  1  0
 11 12  1  0
 12 13  1  0
  2 14  1  0
 14 15  2  0
 15 16  1  0
 16 17  2  0
 17 18  1  0
  8  4  1  0
 13  9  1  0
 18 14  1  0
  3 19  1  0
  5 20  1  0
  6 21  1  0
  9 22  1  0
 10 23  1  0
 10 24  1  0
 11 25  1  0
 11 26  1  0
 12 27  1  0
 12 28  1  0
 13 29  1  0
 13 30  1  0
 16 31  1  0
 17 32  1  0
 18 33  1  0
M  END
>  <Energy>  (29) 
865.33895209661432

>  <compound_id>  (29) 
17989

>  <target_id>  (29) 
1

>  <reference_id>  (29) 
7

>  <inspiration_ids>  (29) 
[7, 114]

>  <energy_score>  (29) 
796.5652695908312

>  <distance_score>  (29) 
12.442029018983973

>  <path>  (29) 
/opt/xchem-fragalysis-2/maxwin/BulkDock/SCRATCH/511020/C17989-P7/C17989-P7.minimised.mol

>  <scratch_subdir>  (29) 
/opt/xchem-fragalysis-2/maxwin/BulkDock/SCRATCH/511020/C17989-P7

>  <fragmenstein_runtime>  (29) 
9.306806564331055

>  <fragmenstein_outcome>  (29) 
too moved

>  <fragmenstein_mode>  (29) 
expansion

>  <fragmenstein_error>  (29) 


$$$$
C17989-P114
     RDKit          3D

 33 35  0  0  0  0  0  0  0  0999 V2000
   -2.0447   -6.7001   24.5079 O   0  0  0  0  0  0  0  0  0  0  0  0
   -1.6174   -6.2136   25.5208 C   0  0  0  0  0  0  0  0  0  0  0  0
   -1.9542   -4.8493   26.2103 N   0  0  0  0  0  0  0  0  0  0  0  0
   -3.0795   -3.3595   25.6345 C   0  0  0  0  0  0  0  0  0  0  0  0
   -3.3402   -1.8527   26.0996 C   0  0  0  0  0  0  0  0  0  0  0  0
   -2.7851   -1.5386   27.3322 C   0  0  0  0  0  0  0  0  0  0  0  0
   -3.6962   -2.2042   28.0000 N   0  0  0  0  0  0  0  0  0  0  0  0
   -4.4237   -2.7629   26.8827 N   0  0  0  0  0  0  0  0  0  0  0  0
   -5.9044   -3.3678   27.4013 C   0  0  0  0  0  0  0  0  0  0  0  0
   -6.3860   -3.5365   28.8766 C   0  0  0  0  0  0  0  0  0  0  0  0
   -7.8330   -3.0173   28.9797 C   0  0  0  0  0  0  0  0  0  0  0  0
   -8.1352   -2.2130   27.7478 C   0  0  0  0  0  0  0  0  0  0  0  0
   -7.2518   -2.8723   26.6871 C   0  0  0  0  0  0  0  0  0  0  0  0
   -0.5251   -6.9577   26.1796 C   0  0  0  0  0  0  0  0  0  0  0  0
    0.2837   -7.6955   25.4164 N   0  0  0  0  0  0  0  0  0  0  0  0
    1.3581   -8.0504   26.1745 C   0  0  0  0  0  0  0  0  0  0  0  0
    1.2236   -7.5230   27.4316 C   0  0  0  0  0  0  0  0  0  0  0  0
    0.0550   -6.8029   27.4121 N   0  0  0  0  0  0  0  0  0  0  0  0
   -1.4636   -4.7889   27.1171 H   0  0  0  0  0  0  0  0  0  0  0  0
   -3.4871   -1.1201   25.3359 H   0  0  0  0  0  0  0  0  0  0  0  0
   -2.2437   -0.7168   27.7752 H   0  0  0  0  0  0  0  0  0  0  0  0
   -5.8215   -4.4251   27.2322 H   0  0  0  0  0  0  0  0  0  0  0  0
   -5.7378   -3.1731   29.6636 H   0  0  0  0  0  0  0  0  0  0  0  0
   -6.4550   -4.6093   29.1090 H   0  0  0  0  0  0  0  0  0  0  0  0
   -8.5339   -3.8483   28.9397 H   0  0  0  0  0  0  0  0  0  0  0  0
   -7.9982   -2.4601   29.9024 H   0  0  0  0  0  0  0  0  0  0  0  0
   -9.1940   -2.2710   27.4720 H   0  0  0  0  0  0  0  0  0  0  0  0
   -7.9220   -1.1552   27.9111 H   0  0  0  0  0  0  0  0  0  0  0  0
   -7.0874   -2.2438   25.8056 H   0  0  0  0  0  0  0  0  0  0  0  0
   -7.8158   -3.7502   26.3386 H   0  0  0  0  0  0  0  0  0  0  0  0
    2.1581   -8.6646   25.7812 H   0  0  0  0  0  0  0  0  0  0  0  0
    1.8482   -7.5763   28.3126 H   0  0  0  0  0  0  0  0  0  0  0  0
   -0.3086   -6.2642   28.1854 H   0  0  0  0  0  0  0  0  0  0  0  0
  1  2  2  0
  2  3  1  0
  3  4  1  0
  4  5  2  0
  5  6  1  0
  6  7  2  0
  7  8  1  0
  8  9  1  0
  9 10  1  0
 10 11  1  0
 11 12  1  0
 12 13  1  0
  2 14  1  0
 14 15  2  0
 15 16  1  0
 16 17  2  0
 17 18  1  0
  8  4  1  0
 13  9  1  0
 18 14  1  0
  3 19  1  0
  5 20  1  0
  6 21  1  0
  9 22  1  0
 10 23  1  0
 10 24  1  0
 11 25  1  0
 11 26  1  0
 12 27  1  0
 12 28  1  0
 13 29  1  0
 13 30  1  0
 16 31  1  0
 17 32  1  0
 18 33  1  0
M  END
>  <Energy>  (30) 
430.03035039658755

>  <compound_id>  (30) 
17989

>  <target_id>  (30) 
1

>  <reference_id>  (30) 
114

>  <inspiration_ids>  (30) 
[7, 114]

>  <energy_score>  (30) 
361.2566678908114

>  <distance_score>  (30) 
14.71277095117445

>  <path>  (30) 
/opt/xchem-fragalysis-2/maxwin/BulkDock/SCRATCH/511020/C17989-P114/C17989-P114.minimised.mol

>  <scratch_subdir>  (30) 
/opt/xchem-fragalysis-2/maxwin/BulkDock/SCRATCH/511020/C17989-P114

>  <fragmenstein_runtime>  (30) 
7.356712579727173

>  <fragmenstein_outcome>  (30) 
too moved

>  <fragmenstein_mode>  (30) 
expansion

>  <fragmenstein_error>  (30) 


$$$$
C17990-P7
     RDKit          3D

 40 42  0  0  0  0  0  0  0  0999 V2000
   -2.0535   -0.3233   28.8414 C   0  0  0  0  0  0  0  0  0  0  0  0
   -1.1972   -0.4522   30.0445 N   0  0  0  0  0  0  0  0  0  0  0  0
    0.2053    0.1668   29.7806 C   0  0  0  0  0  0  0  0  0  0  0  0
    1.0713   -0.3351   28.5934 C   0  0  0  0  0  0  0  0  0  0  0  0
    1.7377    0.4352   27.7365 N   0  0  0  0  0  0  0  0  0  0  0  0
    2.6314   -0.3784   27.0690 C   0  0  0  0  0  0  0  0  0  0  0  0
    2.4744   -1.6780   27.4726 C   0  0  0  0  0  0  0  0  0  0  0  0
    1.4741   -1.6445   28.4145 N   0  0  0  0  0  0  0  0  0  0  0  0
   -1.9221    0.3909   31.4505 S   0  0  0  0  0  0  0  0  0  0  0  0
   -0.9924    0.2056   32.5458 O   0  0  0  0  0  0  0  0  0  0  0  0
   -2.2714    1.7200   30.9914 O   0  0  0  0  0  0  0  0  0  0  0  0
   -3.4057   -0.2047   32.1253 C   0  0  0  0  0  0  0  0  0  0  0  0
   -3.8386   -1.5273   32.3009 C   0  0  0  0  0  0  0  0  0  0  0  0
   -4.9483   -1.6180   33.0568 N   0  0  0  0  0  0  0  0  0  0  0  0
   -5.1933   -0.3394   33.4251 N   0  0  0  0  0  0  0  0  0  0  0  0
   -6.1739   -0.0059   34.4436 C   0  0  0  0  0  0  0  0  0  0  0  0
   -5.8159   -0.4795   35.8535 C   0  0  0  0  0  0  0  0  0  0  0  0
   -7.1639   -0.5295   36.5690 C   0  0  0  0  0  0  0  0  0  0  0  0
   -8.1040   -1.0852   35.5153 C   0  0  0  0  0  0  0  0  0  0  0  0
   -7.5923   -0.5183   34.1899 C   0  0  0  0  0  0  0  0  0  0  0  0
   -4.3340    0.5456   32.8309 C   0  0  0  0  0  0  0  0  0  0  0  0
   -3.0762   -0.6376   29.0695 H   0  0  0  0  0  0  0  0  0  0  0  0
   -2.0625    0.7011   28.4582 H   0  0  0  0  0  0  0  0  0  0  0  0
   -1.6825   -0.9892   28.0568 H   0  0  0  0  0  0  0  0  0  0  0  0
    0.0829    1.2496   29.6495 H   0  0  0  0  0  0  0  0  0  0  0  0
    0.8092   -0.0007   30.6811 H   0  0  0  0  0  0  0  0  0  0  0  0
    3.3096    0.0132   26.3198 H   0  0  0  0  0  0  0  0  0  0  0  0
    2.9532   -2.5979   27.1686 H   0  0  0  0  0  0  0  0  0  0  0  0
    1.1435   -2.4291   28.9577 H   0  0  0  0  0  0  0  0  0  0  0  0
   -3.3772   -2.4396   31.9454 H   0  0  0  0  0  0  0  0  0  0  0  0
   -6.2205    1.0922   34.4665 H   0  0  0  0  0  0  0  0  0  0  0  0
   -5.1175    0.2022   36.3498 H   0  0  0  0  0  0  0  0  0  0  0  0
   -5.3470   -1.4678   35.8309 H   0  0  0  0  0  0  0  0  0  0  0  0
   -7.4737    0.4832   36.8533 H   0  0  0  0  0  0  0  0  0  0  0  0
   -7.1355   -1.1425   37.4739 H   0  0  0  0  0  0  0  0  0  0  0  0
   -8.0375   -2.1757   35.4920 H   0  0  0  0  0  0  0  0  0  0  0  0
   -9.1459   -0.8211   35.7149 H   0  0  0  0  0  0  0  0  0  0  0  0
   -8.1965    0.3395   33.8793 H   0  0  0  0  0  0  0  0  0  0  0  0
   -7.6474   -1.2648   33.3947 H   0  0  0  0  0  0  0  0  0  0  0  0
   -4.3836    1.6092   33.0231 H   0  0  0  0  0  0  0  0  0  0  0  0
  1  2  1  0
  2  3  1  0
  3  4  1  0
  4  5  2  0
  5  6  1  0
  6  7  2  0
  7  8  1  0
  2  9  1  0
  9 10  2  0
  9 11  2  0
  9 12  1  0
 12 13  1  0
 13 14  2  0
 14 15  1  0
 15 16  1  0
 16 17  1  0
 17 18  1  0
 18 19  1  0
 19 20  1  0
 15 21  1  0
  8  4  1  0
 21 12  2  0
 20 16  1  0
  1 22  1  0
  1 23  1  0
  1 24  1  0
  3 25  1  0
  3 26  1  0
  6 27  1  0
  7 28  1  0
  8 29  1  0
 13 30  1  0
 16 31  1  0
 17 32  1  0
 17 33  1  0
 18 34  1  0
 18 35  1  0
 19 36  1  0
 19 37  1  0
 20 38  1  0
 20 39  1  0
 21 40  1  0
M  END
>  <Energy>  (31) 
-22.798326037869199

>  <compound_id>  (31) 
17990

>  <target_id>  (31) 
1

>  <reference_id>  (31) 
7

>  <inspiration_ids>  (31) 
[7, 114]

>  <energy_score>  (31) 
-30.553599009350933

>  <distance_score>  (31) 
12.007396650529085

>  <path>  (31) 
/opt/xchem-fragalysis-2/maxwin/BulkDock/SCRATCH/511020/C17990-P7/C17990-P7.minimised.mol

>  <scratch_subdir>  (31) 
/opt/xchem-fragalysis-2/maxwin/BulkDock/SCRATCH/511020/C17990-P7

>  <fragmenstein_runtime>  (31) 
5.699351787567139

>  <fragmenstein_outcome>  (31) 
too moved

>  <fragmenstein_mode>  (31) 
expansion

>  <fragmenstein_error>  (31) 


$$$$
C17990-P114
     RDKit          3D

 40 42  0  0  0  0  0  0  0  0999 V2000
    2.4281    2.7344   21.6251 C   0  0  0  0  0  0  0  0  0  0  0  0
    3.2571    1.8069   22.5669 N   0  0  0  0  0  0  0  0  0  0  0  0
    5.0830    0.9032   22.0439 C   0  0  0  0  0  0  0  0  0  0  0  0
    6.5736    2.2979   21.3872 C   0  0  0  0  0  0  0  0  0  0  0  0
    6.3950    3.6657   21.4550 N   0  0  0  0  0  0  0  0  0  0  0  0
    7.5271    4.3110   21.8731 C   0  0  0  0  0  0  0  0  0  0  0  0
    8.4914    3.3894   22.1393 C   0  0  0  0  0  0  0  0  0  0  0  0
    7.9942    2.2028   21.5903 N   0  0  0  0  0  0  0  0  0  0  0  0
    2.5161    2.5477   24.4838 S   0  0  0  0  0  0  0  0  0  0  0  0
    3.3629    2.0219   25.5491 O   0  0  0  0  0  0  0  0  0  0  0  0
    2.4399    3.9847   24.2673 O   0  0  0  0  0  0  0  0  0  0  0  0
    0.8985    2.3189   25.4322 C   0  0  0  0  0  0  0  0  0  0  0  0
    0.9378    1.7886   26.7750 C   0  0  0  0  0  0  0  0  0  0  0  0
   -0.2531    1.6773   27.3723 N   0  0  0  0  0  0  0  0  0  0  0  0
   -1.1168    2.2232   26.5011 N   0  0  0  0  0  0  0  0  0  0  0  0
   -2.5450    2.2268   26.8692 C   0  0  0  0  0  0  0  0  0  0  0  0
   -2.8929    3.1566   28.0553 C   0  0  0  0  0  0  0  0  0  0  0  0
   -3.7514    2.3384   29.0433 C   0  0  0  0  0  0  0  0  0  0  0  0
   -4.2978    1.1844   28.2251 C   0  0  0  0  0  0  0  0  0  0  0  0
   -3.1285    0.8520   27.3010 C   0  0  0  0  0  0  0  0  0  0  0  0
   -0.4563    2.6924   25.3404 C   0  0  0  0  0  0  0  0  0  0  0  0
    2.3264    2.3350   20.6248 H   0  0  0  0  0  0  0  0  0  0  0  0
    2.8301    3.7554   21.6120 H   0  0  0  0  0  0  0  0  0  0  0  0
    1.4090    2.8542   22.0001 H   0  0  0  0  0  0  0  0  0  0  0  0
    5.2577   -0.1402   22.2691 H   0  0  0  0  0  0  0  0  0  0  0  0
    4.6029    0.5452   21.2119 H   0  0  0  0  0  0  0  0  0  0  0  0
    7.5423    5.3815   22.0317 H   0  0  0  0  0  0  0  0  0  0  0  0
    9.4835    3.4501   22.5671 H   0  0  0  0  0  0  0  0  0  0  0  0
    8.4127    1.3536   21.8523 H   0  0  0  0  0  0  0  0  0  0  0  0
    1.8117    1.4444   27.3176 H   0  0  0  0  0  0  0  0  0  0  0  0
   -3.0776    2.5757   25.9754 H   0  0  0  0  0  0  0  0  0  0  0  0
   -3.4747    4.0092   27.6843 H   0  0  0  0  0  0  0  0  0  0  0  0
   -2.0106    3.5658   28.5592 H   0  0  0  0  0  0  0  0  0  0  0  0
   -4.5423    2.9420   29.4979 H   0  0  0  0  0  0  0  0  0  0  0  0
   -3.1122    1.9565   29.8484 H   0  0  0  0  0  0  0  0  0  0  0  0
   -5.1636    1.5089   27.6365 H   0  0  0  0  0  0  0  0  0  0  0  0
   -4.5959    0.3339   28.8441 H   0  0  0  0  0  0  0  0  0  0  0  0
   -2.3876    0.2563   27.8473 H   0  0  0  0  0  0  0  0  0  0  0  0
   -3.4502    0.2595   26.4410 H   0  0  0  0  0  0  0  0  0  0  0  0
   -1.0035    3.2364   24.5840 H   0  0  0  0  0  0  0  0  0  0  0  0
  1  2  1  0
  2  3  1  0
  3  4  1  0
  4  5  2  0
  5  6  1  0
  6  7  2  0
  7  8  1  0
  2  9  1  0
  9 10  2  0
  9 11  2  0
  9 12  1  0
 12 13  1  0
 13 14  2  0
 14 15  1  0
 15 16  1  0
 16 17  1  0
 17 18  1  0
 18 19  1  0
 19 20  1  0
 15 21  1  0
  8  4  1  0
 21 12  2  0
 20 16  1  0
  1 22  1  0
  1 23  1  0
  1 24  1  0
  3 25  1  0
  3 26  1  0
  6 27  1  0
  7 28  1  0
  8 29  1  0
 13 30  1  0
 16 31  1  0
 17 32  1  0
 17 33  1  0
 18 34  1  0
 18 35  1  0
 19 36  1  0
 19 37  1  0
 20 38  1  0
 20 39  1  0
 21 40  1  0
M  END
>  <Energy>  (32) 
321.02198909212836

>  <compound_id>  (32) 
17990

>  <target_id>  (32) 
1

>  <reference_id>  (32) 
114

>  <inspiration_ids>  (32) 
[7, 114]

>  <energy_score>  (32) 
313.2667161206464

>  <distance_score>  (32) 
14.223331090495643

>  <path>  (32) 
/opt/xchem-fragalysis-2/maxwin/BulkDock/SCRATCH/511020/C17990-P114/C17990-P114.minimised.mol

>  <scratch_subdir>  (32) 
/opt/xchem-fragalysis-2/maxwin/BulkDock/SCRATCH/511020/C17990-P114

>  <fragmenstein_runtime>  (32) 
6.075412750244141

>  <fragmenstein_outcome>  (32) 
too moved

>  <fragmenstein_mode>  (32) 
expansion

>  <fragmenstein_error>  (32) 


$$$$
C17991-P7
     RDKit          3D

 42 44  0  0  0  0  0  0  0  0999 V2000
   -2.3425   -3.0054   29.8061 O   0  0  0  0  0  0  0  0  0  0  0  0
   -1.9391   -2.0365   30.3839 C   0  0  0  0  0  0  0  0  0  0  0  0
   -0.6331   -1.4118   30.3808 N   0  0  0  0  0  0  0  0  0  0  0  0
    0.6402   -1.8243   29.7450 C   0  0  0  0  0  0  0  0  0  0  0  0
    0.8808   -1.4605   28.2542 C   0  0  0  0  0  0  0  0  0  0  0  0
    2.2742   -0.8299   27.9368 C   0  0  0  0  0  0  0  0  0  0  0  0
    3.2394   -1.5950   27.0368 C   0  0  0  0  0  0  0  0  0  0  0  0
    3.9085   -2.6934   27.3461 N   0  0  0  0  0  0  0  0  0  0  0  0
    4.7911   -2.9236   26.3144 C   0  0  0  0  0  0  0  0  0  0  0  0
    4.6739   -1.9479   25.3658 C   0  0  0  0  0  0  0  0  0  0  0  0
    3.6812   -1.1220   25.8149 N   0  0  0  0  0  0  0  0  0  0  0  0
   -2.8886   -1.3958   31.3556 C   0  0  0  0  0  0  0  0  0  0  0  0
   -3.0507   -0.0526   31.7796 C   0  0  0  0  0  0  0  0  0  0  0  0
   -4.0132    0.1189   32.6946 N   0  0  0  0  0  0  0  0  0  0  0  0
   -4.4957   -1.1204   32.8994 N   0  0  0  0  0  0  0  0  0  0  0  0
   -5.4792   -1.3713   33.9420 C   0  0  0  0  0  0  0  0  0  0  0  0
   -5.1347   -0.8001   35.3291 C   0  0  0  0  0  0  0  0  0  0  0  0
   -6.4777   -0.4910   36.0109 C   0  0  0  0  0  0  0  0  0  0  0  0
   -7.5622   -0.8978   35.0248 C   0  0  0  0  0  0  0  0  0  0  0  0
   -6.8751   -0.8092   33.6677 C   0  0  0  0  0  0  0  0  0  0  0  0
   -3.8913   -2.0456   32.0807 C   0  0  0  0  0  0  0  0  0  0  0  0
   -0.6273   -0.6550   31.0530 H   0  0  0  0  0  0  0  0  0  0  0  0
    1.4251   -1.3971   30.3771 H   0  0  0  0  0  0  0  0  0  0  0  0
    0.6944   -2.9141   29.8485 H   0  0  0  0  0  0  0  0  0  0  0  0
    0.7349   -2.3634   27.6541 H   0  0  0  0  0  0  0  0  0  0  0  0
    0.1084   -0.7449   27.9461 H   0  0  0  0  0  0  0  0  0  0  0  0
    2.0927    0.1472   27.4693 H   0  0  0  0  0  0  0  0  0  0  0  0
    2.8096   -0.6123   28.8688 H   0  0  0  0  0  0  0  0  0  0  0  0
    5.4547   -3.7777   26.3216 H   0  0  0  0  0  0  0  0  0  0  0  0
    5.1511   -1.7667   24.4210 H   0  0  0  0  0  0  0  0  0  0  0  0
    3.3470   -0.3145   25.3067 H   0  0  0  0  0  0  0  0  0  0  0  0
   -2.5025    0.8210   31.4513 H   0  0  0  0  0  0  0  0  0  0  0  0
   -5.5384   -2.4608   34.0414 H   0  0  0  0  0  0  0  0  0  0  0  0
   -4.5500   -1.5208   35.9112 H   0  0  0  0  0  0  0  0  0  0  0  0
   -4.5372    0.1167   35.2704 H   0  0  0  0  0  0  0  0  0  0  0  0
   -6.5401    0.5850   36.2132 H   0  0  0  0  0  0  0  0  0  0  0  0
   -6.5838   -1.0042   36.9710 H   0  0  0  0  0  0  0  0  0  0  0  0
   -8.4334   -0.2435   35.0988 H   0  0  0  0  0  0  0  0  0  0  0  0
   -7.8887   -1.9231   35.2247 H   0  0  0  0  0  0  0  0  0  0  0  0
   -6.8230    0.2353   33.3375 H   0  0  0  0  0  0  0  0  0  0  0  0
   -7.3949   -1.3737   32.8940 H   0  0  0  0  0  0  0  0  0  0  0  0
   -4.1759   -3.0887   32.1045 H   0  0  0  0  0  0  0  0  0  0  0  0
  1  2  2  0
  2  3  1  0
  3  4  1  0
  4  5  1  0
  5  6  1  0
  6  7  1  0
  7  8  2  0
  8  9  1  0
  9 10  2  0
 10 11  1  0
  2 12  1  0
 12 13  1  0
 13 14  2  0
 14 15  1  0
 15 16  1  0
 16 17  1  0
 17 18  1  0
 18 19  1  0
 19 20  1  0
 15 21  1  0
 11  7  1  0
 21 12  2  0
 20 16  1  0
  3 22  1  0
  4 23  1  0
  4 24  1  0
  5 25  1  0
  5 26  1  0
  6 27  1  0
  6 28  1  0
  9 29  1  0
 10 30  1  0
 11 31  1  0
 13 32  1  0
 16 33  1  0
 17 34  1  0
 17 35  1  0
 18 36  1  0
 18 37  1  0
 19 38  1  0
 19 39  1  0
 20 40  1  0
 20 41  1  0
 21 42  1  0
M  END
>  <Energy>  (33) 
13.136704159427758

>  <compound_id>  (33) 
17991

>  <target_id>  (33) 
1

>  <reference_id>  (33) 
7

>  <inspiration_ids>  (33) 
[7, 114]

>  <energy_score>  (33) 
-6.295550348566593

>  <distance_score>  (33) 
11.195018722029637

>  <path>  (33) 
/opt/xchem-fragalysis-2/maxwin/BulkDock/SCRATCH/511020/C17991-P7/C17991-P7.minimised.mol

>  <scratch_subdir>  (33) 
/opt/xchem-fragalysis-2/maxwin/BulkDock/SCRATCH/511020/C17991-P7

>  <fragmenstein_runtime>  (33) 
14.849477291107178

>  <fragmenstein_outcome>  (33) 
too moved

>  <fragmenstein_mode>  (33) 
expansion

>  <fragmenstein_error>  (33) 


$$$$
C17991-P114
     RDKit          3D

 42 44  0  0  0  0  0  0  0  0999 V2000
   -3.2219   -0.9129   26.0043 O   0  0  0  0  0  0  0  0  0  0  0  0
   -3.6582   -1.9037   25.4869 C   0  0  0  0  0  0  0  0  0  0  0  0
   -3.2750   -2.5535   24.2120 N   0  0  0  0  0  0  0  0  0  0  0  0
   -1.9856   -2.1819   23.0784 C   0  0  0  0  0  0  0  0  0  0  0  0
   -0.0194   -2.3674   22.6884 C   0  0  0  0  0  0  0  0  0  0  0  0
    1.6941   -3.2527   22.8053 C   0  0  0  0  0  0  0  0  0  0  0  0
    3.1370   -2.6879   23.8623 C   0  0  0  0  0  0  0  0  0  0  0  0
    4.3167   -2.1342   23.5809 N   0  0  0  0  0  0  0  0  0  0  0  0
    5.1547   -2.2523   24.6994 C   0  0  0  0  0  0  0  0  0  0  0  0
    4.4784   -2.7175   25.7684 C   0  0  0  0  0  0  0  0  0  0  0  0
    3.2466   -2.9351   25.2600 N   0  0  0  0  0  0  0  0  0  0  0  0
   -4.6586   -2.5576   26.4060 C   0  0  0  0  0  0  0  0  0  0  0  0
   -4.2349   -2.0987   27.8320 C   0  0  0  0  0  0  0  0  0  0  0  0
   -4.7143   -2.8750   28.7232 N   0  0  0  0  0  0  0  0  0  0  0  0
   -5.6986   -3.5065   28.0949 N   0  0  0  0  0  0  0  0  0  0  0  0
   -6.5473   -4.0619   29.1269 C   0  0  0  0  0  0  0  0  0  0  0  0
   -5.5998   -4.9385   30.0062 C   0  0  0  0  0  0  0  0  0  0  0  0
   -4.9951   -3.9720   31.0879 C   0  0  0  0  0  0  0  0  0  0  0  0
   -5.8760   -2.6790   31.1103 C   0  0  0  0  0  0  0  0  0  0  0  0
   -6.9675   -2.8333   30.0046 C   0  0  0  0  0  0  0  0  0  0  0  0
   -5.6640   -3.4740   26.7030 C   0  0  0  0  0  0  0  0  0  0  0  0
   -3.7918   -3.4265   24.1170 H   0  0  0  0  0  0  0  0  0  0  0  0
   -1.7553   -3.0455   23.6184 H   0  0  0  0  0  0  0  0  0  0  0  0
   -2.5802   -2.2152   22.2010 H   0  0  0  0  0  0  0  0  0  0  0  0
   -0.1350   -3.2339   23.2633 H   0  0  0  0  0  0  0  0  0  0  0  0
   -0.0665   -2.4749   21.6634 H   0  0  0  0  0  0  0  0  0  0  0  0
    1.4851   -4.3041   23.0551 H   0  0  0  0  0  0  0  0  0  0  0  0
    2.0007   -3.4766   21.8307 H   0  0  0  0  0  0  0  0  0  0  0  0
    6.2151   -2.0638   24.6514 H   0  0  0  0  0  0  0  0  0  0  0  0
    4.7473   -2.9178   26.7938 H   0  0  0  0  0  0  0  0  0  0  0  0
    2.4508   -3.1506   25.8255 H   0  0  0  0  0  0  0  0  0  0  0  0
   -3.4471   -1.4018   28.1183 H   0  0  0  0  0  0  0  0  0  0  0  0
   -7.3567   -4.5881   28.6207 H   0  0  0  0  0  0  0  0  0  0  0  0
   -6.1273   -5.7851   30.4549 H   0  0  0  0  0  0  0  0  0  0  0  0
   -4.7906   -5.4061   29.4290 H   0  0  0  0  0  0  0  0  0  0  0  0
   -3.9556   -3.7196   30.8446 H   0  0  0  0  0  0  0  0  0  0  0  0
   -4.9266   -4.4504   32.0727 H   0  0  0  0  0  0  0  0  0  0  0  0
   -5.2467   -1.8016   30.9244 H   0  0  0  0  0  0  0  0  0  0  0  0
   -6.3146   -2.4912   32.0955 H   0  0  0  0  0  0  0  0  0  0  0  0
   -7.9678   -2.9153   30.4178 H   0  0  0  0  0  0  0  0  0  0  0  0
   -7.0473   -1.9126   29.4161 H   0  0  0  0  0  0  0  0  0  0  0  0
   -6.2977   -4.1139   26.1084 H   0  0  0  0  0  0  0  0  0  0  0  0
  1  2  2  0
  2  3  1  0
  3  4  1  0
  4  5  1  0
  5  6  1  0
  6  7  1  0
  7  8  2  0
  8  9  1  0
  9 10  2  0
 10 11  1  0
  2 12  1  0
 12 13  1  0
 13 14  2  0
 14 15  1  0
 15 16  1  0
 16 17  1  0
 17 18  1  0
 18 19  1  0
 19 20  1  0
 15 21  1  0
 11  7  1  0
 21 12  2  0
 20 16  1  0
  3 22  1  0
  4 23  1  0
  4 24  1  0
  5 25  1  0
  5 26  1  0
  6 27  1  0
  6 28  1  0
  9 29  1  0
 10 30  1  0
 11 31  1  0
 13 32  1  0
 16 33  1  0
 17 34  1  0
 17 35  1  0
 18 36  1  0
 18 37  1  0
 19 38  1  0
 19 39  1  0
 20 40  1  0
 20 41  1  0
 21 42  1  0
M  END
>  <Energy>  (34) 
386.84183105081786

>  <compound_id>  (34) 
17991

>  <target_id>  (34) 
1

>  <reference_id>  (34) 
114

>  <inspiration_ids>  (34) 
[7, 114]

>  <energy_score>  (34) 
367.4095765428231

>  <distance_score>  (34) 
12.164084522077154

>  <path>  (34) 
/opt/xchem-fragalysis-2/maxwin/BulkDock/SCRATCH/511020/C17991-P114/C17991-P114.minimised.mol

>  <scratch_subdir>  (34) 
/opt/xchem-fragalysis-2/maxwin/BulkDock/SCRATCH/511020/C17991-P114

>  <fragmenstein_runtime>  (34) 
10.289665699005127

>  <fragmenstein_outcome>  (34) 
too moved

>  <fragmenstein_mode>  (34) 
expansion

>  <fragmenstein_error>  (34) 


$$$$
C48743-P7
     RDKit          3D

 43 45  0  0  0  0  0  0  0  0999 V2000
    0.3935   -6.1079   26.6107 C   0  0  0  0  0  0  0  0  0  0  0  0
    1.1491   -4.7496   26.7326 N   0  0  0  0  0  0  0  0  0  0  0  0
    2.3746   -5.5944   25.3560 C   0  0  0  0  0  0  0  0  0  0  0  0
    3.3831   -7.2076   24.5004 C   0  0  0  0  0  0  0  0  0  0  0  0
    2.8557   -8.5149   24.0370 C   0  0  0  0  0  0  0  0  0  0  0  0
    3.8580   -9.2964   23.5089 N   0  0  0  0  0  0  0  0  0  0  0  0
    5.0311   -8.6296   23.5731 C   0  0  0  0  0  0  0  0  0  0  0  0
    4.8459   -7.4409   24.0776 N   0  0  0  0  0  0  0  0  0  0  0  0
    1.3866   -4.4089   28.2478 C   0  0  0  0  0  0  0  0  0  0  0  0
    2.3251   -4.6630   28.9789 O   0  0  0  0  0  0  0  0  0  0  0  0
    0.2133   -3.4896   28.8337 C   0  0  0  0  0  0  0  0  0  0  0  0
   -0.1738   -2.6153   28.1169 O   0  0  0  0  0  0  0  0  0  0  0  0
   -0.1587   -3.8316   30.1956 N   0  0  0  0  0  0  0  0  0  0  0  0
   -1.1355   -3.3026   31.0319 C   0  0  0  0  0  0  0  0  0  0  0  0
   -2.0018   -2.2093   30.7697 C   0  0  0  0  0  0  0  0  0  0  0  0
   -2.8618   -1.9605   31.7635 N   0  0  0  0  0  0  0  0  0  0  0  0
   -2.5341   -2.8638   32.7028 N   0  0  0  0  0  0  0  0  0  0  0  0
   -3.2505   -2.8641   33.9724 C   0  0  0  0  0  0  0  0  0  0  0  0
   -3.0562   -1.5696   34.7828 C   0  0  0  0  0  0  0  0  0  0  0  0
   -4.4229   -1.2675   35.3943 C   0  0  0  0  0  0  0  0  0  0  0  0
   -5.3936   -1.7279   34.3250 C   0  0  0  0  0  0  0  0  0  0  0  0
   -4.7693   -3.0206   33.8066 C   0  0  0  0  0  0  0  0  0  0  0  0
   -1.5148   -3.7029   32.3005 C   0  0  0  0  0  0  0  0  0  0  0  0
   -0.0651   -6.3422   25.6346 H   0  0  0  0  0  0  0  0  0  0  0  0
    0.5120   -6.9529   27.3037 H   0  0  0  0  0  0  0  0  0  0  0  0
   -0.5446   -5.7807   27.1030 H   0  0  0  0  0  0  0  0  0  0  0  0
    2.6933   -4.4032   25.1711 H   0  0  0  0  0  0  0  0  0  0  0  0
    1.6855   -5.8648   24.3303 H   0  0  0  0  0  0  0  0  0  0  0  0
    1.8361   -8.8825   24.0365 H   0  0  0  0  0  0  0  0  0  0  0  0
    3.7319  -10.2168   23.1142 H   0  0  0  0  0  0  0  0  0  0  0  0
    5.9677   -9.0308   23.2131 H   0  0  0  0  0  0  0  0  0  0  0  0
    0.4349   -4.5863   30.5215 H   0  0  0  0  0  0  0  0  0  0  0  0
   -2.0348   -1.5979   29.8754 H   0  0  0  0  0  0  0  0  0  0  0  0
   -2.8637   -3.7173   34.5442 H   0  0  0  0  0  0  0  0  0  0  0  0
   -2.7455   -0.7319   34.1471 H   0  0  0  0  0  0  0  0  0  0  0  0
   -2.2897   -1.6894   35.5557 H   0  0  0  0  0  0  0  0  0  0  0  0
   -4.5401   -0.2064   35.6324 H   0  0  0  0  0  0  0  0  0  0  0  0
   -4.5481   -1.8373   36.3191 H   0  0  0  0  0  0  0  0  0  0  0  0
   -5.4378   -0.9889   33.5159 H   0  0  0  0  0  0  0  0  0  0  0  0
   -6.4070   -1.8614   34.7104 H   0  0  0  0  0  0  0  0  0  0  0  0
   -5.0731   -3.2263   32.7763 H   0  0  0  0  0  0  0  0  0  0  0  0
   -5.0908   -3.8674   34.4195 H   0  0  0  0  0  0  0  0  0  0  0  0
   -1.1529   -4.4875   32.9484 H   0  0  0  0  0  0  0  0  0  0  0  0
  1  2  1  0
  2  3  1  0
  3  4  1  0
  4  5  2  0
  5  6  1  0
  6  7  1  0
  7  8  2  0
  2  9  1  0
  9 10  2  0
  9 11  1  0
 11 12  2  0
 11 13  1  0
 13 14  1  0
 14 15  1  0
 15 16  2  0
 16 17  1  0
 17 18  1  0
 18 19  1  0
 19 20  1  0
 20 21  1  0
 21 22  1  0
 17 23  1  0
  8  4  1  0
 23 14  2  0
 22 18  1  0
  1 24  1  0
  1 25  1  0
  1 26  1  0
  3 27  1  0
  3 28  1  0
  5 29  1  0
  6 30  1  0
  7 31  1  0
 13 32  1  0
 15 33  1  0
 18 34  1  0
 19 35  1  0
 19 36  1  0
 20 37  1  0
 20 38  1  0
 21 39  1  0
 21 40  1  0
 22 41  1  0
 22 42  1  0
 23 43  1  0
M  END
>  <Energy>  (35) 
417.81516669587046

>  <compound_id>  (35) 
48743

>  <target_id>  (35) 
1

>  <reference_id>  (35) 
7

>  <inspiration_ids>  (35) 
[7, 114]

>  <energy_score>  (35) 
309.0611139702212

>  <distance_score>  (35) 
12.373691234576647

>  <path>  (35) 
/opt/xchem-fragalysis-2/maxwin/BulkDock/SCRATCH/511020/C48743-P7/C48743-P7.minimised.mol

>  <scratch_subdir>  (35) 
/opt/xchem-fragalysis-2/maxwin/BulkDock/SCRATCH/511020/C48743-P7

>  <fragmenstein_runtime>  (35) 
10.068081378936768

>  <fragmenstein_outcome>  (35) 
too moved

>  <fragmenstein_mode>  (35) 
expansion

>  <fragmenstein_error>  (35) 


$$$$
C48743-P114
     RDKit          3D

 43 45  0  0  0  0  0  0  0  0999 V2000
    2.4747   -0.2863   30.3521 C   0  0  0  0  0  0  0  0  0  0  0  0
    1.6433    0.7566   29.6637 N   0  0  0  0  0  0  0  0  0  0  0  0
    3.0068    1.1093   29.0335 C   0  0  0  0  0  0  0  0  0  0  0  0
    3.4841    0.4060   27.7713 C   0  0  0  0  0  0  0  0  0  0  0  0
    3.2147    0.7159   26.4559 C   0  0  0  0  0  0  0  0  0  0  0  0
    3.8748   -0.2174   25.6982 N   0  0  0  0  0  0  0  0  0  0  0  0
    4.6441   -0.9417   26.5555 C   0  0  0  0  0  0  0  0  0  0  0  0
    4.4564   -0.5767   27.8056 N   0  0  0  0  0  0  0  0  0  0  0  0
    0.8426    1.4675   30.6267 C   0  0  0  0  0  0  0  0  0  0  0  0
    1.0769    2.4744   31.2513 O   0  0  0  0  0  0  0  0  0  0  0  0
   -0.5431    0.7819   31.0383 C   0  0  0  0  0  0  0  0  0  0  0  0
   -0.7642   -0.3657   30.7874 O   0  0  0  0  0  0  0  0  0  0  0  0
   -1.3171    1.7547   31.7912 N   0  0  0  0  0  0  0  0  0  0  0  0
   -2.4909    1.6181   32.5160 C   0  0  0  0  0  0  0  0  0  0  0  0
   -3.1484    2.6546   33.2273 C   0  0  0  0  0  0  0  0  0  0  0  0
   -4.2062    2.2358   33.9244 N   0  0  0  0  0  0  0  0  0  0  0  0
   -4.2155    0.9047   33.7042 N   0  0  0  0  0  0  0  0  0  0  0  0
   -5.1074    0.1049   34.5287 C   0  0  0  0  0  0  0  0  0  0  0  0
   -4.6679   -1.3444   34.7537 C   0  0  0  0  0  0  0  0  0  0  0  0
   -5.6716   -2.1645   33.9656 C   0  0  0  0  0  0  0  0  0  0  0  0
   -6.9699   -1.3898   34.1309 C   0  0  0  0  0  0  0  0  0  0  0  0
   -6.5332    0.0494   33.9673 C   0  0  0  0  0  0  0  0  0  0  0  0
   -3.2660    0.5105   32.7879 C   0  0  0  0  0  0  0  0  0  0  0  0
    3.1687    0.1103   31.1092 H   0  0  0  0  0  0  0  0  0  0  0  0
    1.7671   -0.8636   30.9654 H   0  0  0  0  0  0  0  0  0  0  0  0
    2.8994   -1.0567   29.6987 H   0  0  0  0  0  0  0  0  0  0  0  0
    3.8286    1.3255   29.7383 H   0  0  0  0  0  0  0  0  0  0  0  0
    2.7939    2.1356   28.6874 H   0  0  0  0  0  0  0  0  0  0  0  0
    2.5922    1.4769   26.0105 H   0  0  0  0  0  0  0  0  0  0  0  0
    3.8415   -0.3052   24.6826 H   0  0  0  0  0  0  0  0  0  0  0  0
    5.3218   -1.7030   26.2096 H   0  0  0  0  0  0  0  0  0  0  0  0
   -0.7799    2.6175   31.8721 H   0  0  0  0  0  0  0  0  0  0  0  0
   -2.8804    3.7018   33.2745 H   0  0  0  0  0  0  0  0  0  0  0  0
   -5.1219    0.6004   35.5097 H   0  0  0  0  0  0  0  0  0  0  0  0
   -3.6359   -1.5696   34.4720 H   0  0  0  0  0  0  0  0  0  0  0  0
   -4.7611   -1.5821   35.8202 H   0  0  0  0  0  0  0  0  0  0  0  0
   -5.3852   -2.1964   32.9071 H   0  0  0  0  0  0  0  0  0  0  0  0
   -5.7087   -3.1912   34.3311 H   0  0  0  0  0  0  0  0  0  0  0  0
   -7.4067   -1.5448   35.1221 H   0  0  0  0  0  0  0  0  0  0  0  0
   -7.7111   -1.6537   33.3763 H   0  0  0  0  0  0  0  0  0  0  0  0
   -7.2060    0.7321   34.4952 H   0  0  0  0  0  0  0  0  0  0  0  0
   -6.5487    0.3144   32.9036 H   0  0  0  0  0  0  0  0  0  0  0  0
   -3.1671   -0.5180   32.4709 H   0  0  0  0  0  0  0  0  0  0  0  0
  1  2  1  0
  2  3  1  0
  3  4  1  0
  4  5  2  0
  5  6  1  0
  6  7  1  0
  7  8  2  0
  2  9  1  0
  9 10  2  0
  9 11  1  0
 11 12  2  0
 11 13  1  0
 13 14  1  0
 14 15  1  0
 15 16  2  0
 16 17  1  0
 17 18  1  0
 18 19  1  0
 19 20  1  0
 20 21  1  0
 21 22  1  0
 17 23  1  0
  8  4  1  0
 23 14  2  0
 22 18  1  0
  1 24  1  0
  1 25  1  0
  1 26  1  0
  3 27  1  0
  3 28  1  0
  5 29  1  0
  6 30  1  0
  7 31  1  0
 13 32  1  0
 15 33  1  0
 18 34  1  0
 19 35  1  0
 19 36  1  0
 20 37  1  0
 20 38  1  0
 21 39  1  0
 21 40  1  0
 22 41  1  0
 22 42  1  0
 23 43  1  0
M  END
>  <Energy>  (36) 
137.08078465117677

>  <compound_id>  (36) 
48743

>  <target_id>  (36) 
1

>  <reference_id>  (36) 
114

>  <inspiration_ids>  (36) 
[7, 114]

>  <energy_score>  (36) 
28.32673192552727

>  <distance_score>  (36) 
11.8772406449683

>  <path>  (36) 
/opt/xchem-fragalysis-2/maxwin/BulkDock/SCRATCH/511020/C48743-P114/C48743-P114.minimised.mol

>  <scratch_subdir>  (36) 
/opt/xchem-fragalysis-2/maxwin/BulkDock/SCRATCH/511020/C48743-P114

>  <fragmenstein_runtime>  (36) 
12.046447038650513

>  <fragmenstein_outcome>  (36) 
too moved

>  <fragmenstein_mode>  (36) 
expansion

>  <fragmenstein_error>  (36) 


$$$$
C48744-P7
     RDKit          3D

 50 53  0  0  0  0  0  0  0  0999 V2000
    1.1274    0.1863   27.6635 C   0  0  0  0  0  0  0  0  0  0  0  0
    0.1328   -0.1358   28.5599 C   0  0  0  0  0  0  0  0  0  0  0  0
    0.5295   -1.3001   29.1523 N   0  0  0  0  0  0  0  0  0  0  0  0
   -0.1283   -1.9417   30.2964 C   0  0  0  0  0  0  0  0  0  0  0  0
   -0.4341   -1.0220   31.5124 C   0  0  0  0  0  0  0  0  0  0  0  0
   -1.9021   -1.2365   31.8953 C   0  0  0  0  0  0  0  0  0  0  0  0
   -2.2431   -2.5856   31.3007 C   0  0  0  0  0  0  0  0  0  0  0  0
   -1.4834   -2.5742   29.9666 C   0  0  0  0  0  0  0  0  0  0  0  0
    1.7074   -1.7840   28.6186 N   0  0  0  0  0  0  0  0  0  0  0  0
    2.0832   -0.8892   27.6602 C   0  0  0  0  0  0  0  0  0  0  0  0
    3.5310   -0.8705   26.8922 C   0  0  0  0  0  0  0  0  0  0  0  0
    3.8059   -1.5140   25.4268 C   0  0  0  0  0  0  0  0  0  0  0  0
    4.9031   -0.8938   24.4538 N   0  0  0  0  0  0  0  0  0  0  0  0
    5.1094   -1.8016   22.9285 C   0  0  0  0  0  0  0  0  0  0  0  0
    6.1443   -1.6545   21.1536 C   0  0  0  0  0  0  0  0  0  0  0  0
    7.5127   -1.3547   20.6568 N   0  0  0  0  0  0  0  0  0  0  0  0
    7.4673   -0.0577   19.5633 C   0  0  0  0  0  0  0  0  0  0  0  0
    6.3829   -0.5089   18.8944 C   0  0  0  0  0  0  0  0  0  0  0  0
    6.3662   -0.3385   20.3449 N   0  0  0  0  0  0  0  0  0  0  0  0
    5.8280    0.1720   17.6717 C   0  0  0  0  0  0  0  0  0  0  0  0
    6.5323    1.4706   17.2874 C   0  0  0  0  0  0  0  0  0  0  0  0
    6.8824    2.4258   18.3949 C   0  0  0  0  0  0  0  0  0  0  0  0
    7.0265    1.7110   19.7276 C   0  0  0  0  0  0  0  0  0  0  0  0
    1.1905    1.0976   27.0869 H   0  0  0  0  0  0  0  0  0  0  0  0
   -0.7632    0.3875   28.8591 H   0  0  0  0  0  0  0  0  0  0  0  0
    0.5605   -2.7286   30.6327 H   0  0  0  0  0  0  0  0  0  0  0  0
   -0.2318    0.0370   31.3228 H   0  0  0  0  0  0  0  0  0  0  0  0
    0.2091   -1.3198   32.3499 H   0  0  0  0  0  0  0  0  0  0  0  0
   -2.5194   -0.4553   31.4361 H   0  0  0  0  0  0  0  0  0  0  0  0
   -2.0584   -1.2010   32.9772 H   0  0  0  0  0  0  0  0  0  0  0  0
   -3.3218   -2.7064   31.1881 H   0  0  0  0  0  0  0  0  0  0  0  0
   -1.8680   -3.3936   31.9395 H   0  0  0  0  0  0  0  0  0  0  0  0
   -2.0323   -1.9792   29.2276 H   0  0  0  0  0  0  0  0  0  0  0  0
   -1.3523   -3.5775   29.5536 H   0  0  0  0  0  0  0  0  0  0  0  0
    4.2578   -1.3047   27.5906 H   0  0  0  0  0  0  0  0  0  0  0  0
    3.7775    0.1973   26.8111 H   0  0  0  0  0  0  0  0  0  0  0  0
    4.0251   -2.5737   25.5524 H   0  0  0  0  0  0  0  0  0  0  0  0
    2.8722   -1.4494   24.9000 H   0  0  0  0  0  0  0  0  0  0  0  0
    4.4370   -0.0525   24.0768 H   0  0  0  0  0  0  0  0  0  0  0  0
    5.6956   -2.3896   23.6292 H   0  0  0  0  0  0  0  0  0  0  0  0
    4.1566   -2.3042   23.0846 H   0  0  0  0  0  0  0  0  0  0  0  0
    5.9891    0.4371   20.9004 H   0  0  0  0  0  0  0  0  0  0  0  0
    5.9901   -0.5139   16.8316 H   0  0  0  0  0  0  0  0  0  0  0  0
    4.7518    0.3029   17.6305 H   0  0  0  0  0  0  0  0  0  0  0  0
    7.4707    1.2099   16.7783 H   0  0  0  0  0  0  0  0  0  0  0  0
    5.9115    2.0305   16.5799 H   0  0  0  0  0  0  0  0  0  0  0  0
    7.7581    2.9780   18.0615 H   0  0  0  0  0  0  0  0  0  0  0  0
    6.0971    3.1888   18.4877 H   0  0  0  0  0  0  0  0  0  0  0  0
    7.4931    2.1637   20.5862 H   0  0  0  0  0  0  0  0  0  0  0  0
    5.9744    1.8189   20.0543 H   0  0  0  0  0  0  0  0  0  0  0  0
  1  2  2  0
  2  3  1  0
  3  4  1  0
  4  5  1  0
  5  6  1  0
  6  7  1  0
  7  8  1  0
  3  9  1  0
  9 10  2  0
 10 11  1  0
 11 12  1  0
 12 13  1  0
 13 14  1  0
 14 15  1  0
 15 16  2  0
 16 17  1  0
 17 18  2  0
 18 19  1  0
 18 20  1  0
 20 21  1  0
 21 22  1  0
 22 23  1  0
 10  1  1  0
 19 15  1  0
  8  4  1  0
 23 17  1  0
  1 24  1  0
  2 25  1  0
  4 26  1  0
  5 27  1  0
  5 28  1  0
  6 29  1  0
  6 30  1  0
  7 31  1  0
  7 32  1  0
  8 33  1  0
  8 34  1  0
 11 35  1  0
 11 36  1  0
 12 37  1  0
 12 38  1  0
 13 39  1  0
 14 40  1  0
 14 41  1  0
 19 42  1  0
 20 43  1  0
 20 44  1  0
 21 45  1  0
 21 46  1  0
 22 47  1  0
 22 48  1  0
 23 49  1  0
 23 50  1  0
M  END
>  <Energy>  (37) 
554.74790370802123

>  <compound_id>  (37) 
48744

>  <target_id>  (37) 
1

>  <reference_id>  (37) 
7

>  <inspiration_ids>  (37) 
[7, 114]

>  <energy_score>  (37) 
454.4841871472119

>  <distance_score>  (37) 
12.943965284589918

>  <path>  (37) 
/opt/xchem-fragalysis-2/maxwin/BulkDock/SCRATCH/511020/C48744-P7/C48744-P7.minimised.mol

>  <scratch_subdir>  (37) 
/opt/xchem-fragalysis-2/maxwin/BulkDock/SCRATCH/511020/C48744-P7

>  <fragmenstein_runtime>  (37) 
8.429094076156616

>  <fragmenstein_outcome>  (37) 
too moved

>  <fragmenstein_mode>  (37) 
expansion

>  <fragmenstein_error>  (37) 


$$$$
C48744-P114
     RDKit          3D

 50 53  0  0  0  0  0  0  0  0999 V2000
   -2.7086   -1.4724   27.0640 C   0  0  0  0  0  0  0  0  0  0  0  0
   -3.2331   -2.0619   28.2082 C   0  0  0  0  0  0  0  0  0  0  0  0
   -4.5531   -2.5282   27.9255 N   0  0  0  0  0  0  0  0  0  0  0  0
   -5.7251   -3.1662   28.8028 C   0  0  0  0  0  0  0  0  0  0  0  0
   -7.2585   -2.9985   28.4733 C   0  0  0  0  0  0  0  0  0  0  0  0
   -7.9692   -2.3341   29.6238 C   0  0  0  0  0  0  0  0  0  0  0  0
   -7.0555   -2.2918   30.8408 C   0  0  0  0  0  0  0  0  0  0  0  0
   -5.7494   -3.0643   30.4294 C   0  0  0  0  0  0  0  0  0  0  0  0
   -4.6720   -2.3943   26.5503 N   0  0  0  0  0  0  0  0  0  0  0  0
   -3.4945   -2.0222   25.9117 C   0  0  0  0  0  0  0  0  0  0  0  0
   -2.9597   -2.5999   24.0939 C   0  0  0  0  0  0  0  0  0  0  0  0
   -1.5044   -2.1176   22.7577 C   0  0  0  0  0  0  0  0  0  0  0  0
    0.0877   -2.0300   21.5191 N   0  0  0  0  0  0  0  0  0  0  0  0
    0.7787   -1.0842   19.7507 C   0  0  0  0  0  0  0  0  0  0  0  0
    1.3564   -1.5296   18.1358 C   0  0  0  0  0  0  0  0  0  0  0  0
    2.3422   -0.8949   17.4944 N   0  0  0  0  0  0  0  0  0  0  0  0
    2.6080   -1.6270   16.3767 C   0  0  0  0  0  0  0  0  0  0  0  0
    1.7302   -2.6783   16.2746 C   0  0  0  0  0  0  0  0  0  0  0  0
    0.8947   -2.5782   17.3573 N   0  0  0  0  0  0  0  0  0  0  0  0
    1.7121   -3.6977   15.2025 C   0  0  0  0  0  0  0  0  0  0  0  0
    2.5405   -3.1850   14.0024 C   0  0  0  0  0  0  0  0  0  0  0  0
    3.8695   -2.5224   14.4326 C   0  0  0  0  0  0  0  0  0  0  0  0
    3.6557   -1.3141   15.3716 C   0  0  0  0  0  0  0  0  0  0  0  0
   -1.7171   -1.0388   27.0641 H   0  0  0  0  0  0  0  0  0  0  0  0
   -2.7641   -2.2342   29.1705 H   0  0  0  0  0  0  0  0  0  0  0  0
   -5.6324   -4.2138   28.6159 H   0  0  0  0  0  0  0  0  0  0  0  0
   -7.7061   -3.9978   28.3741 H   0  0  0  0  0  0  0  0  0  0  0  0
   -7.4969   -2.4756   27.5476 H   0  0  0  0  0  0  0  0  0  0  0  0
   -8.1900   -1.3138   29.2917 H   0  0  0  0  0  0  0  0  0  0  0  0
   -8.9108   -2.8534   29.8063 H   0  0  0  0  0  0  0  0  0  0  0  0
   -7.5145   -2.5208   31.7873 H   0  0  0  0  0  0  0  0  0  0  0  0
   -6.8566   -1.2422   31.0864 H   0  0  0  0  0  0  0  0  0  0  0  0
   -5.6878   -4.0906   30.7483 H   0  0  0  0  0  0  0  0  0  0  0  0
   -4.8674   -2.6062   30.8946 H   0  0  0  0  0  0  0  0  0  0  0  0
   -3.8335   -2.8259   23.5180 H   0  0  0  0  0  0  0  0  0  0  0  0
   -2.7326   -3.6340   24.3891 H   0  0  0  0  0  0  0  0  0  0  0  0
   -2.2937   -2.2092   22.0640 H   0  0  0  0  0  0  0  0  0  0  0  0
   -0.8775   -2.8305   23.1939 H   0  0  0  0  0  0  0  0  0  0  0  0
    0.4110   -3.0008   21.3385 H   0  0  0  0  0  0  0  0  0  0  0  0
    1.6429   -0.4145   19.8644 H   0  0  0  0  0  0  0  0  0  0  0  0
    0.0279   -0.7461   19.0902 H   0  0  0  0  0  0  0  0  0  0  0  0
    0.1669   -3.2139   17.6499 H   0  0  0  0  0  0  0  0  0  0  0  0
    0.6887   -3.9187   14.8815 H   0  0  0  0  0  0  0  0  0  0  0  0
    2.1541   -4.6269   15.5807 H   0  0  0  0  0  0  0  0  0  0  0  0
    1.9485   -2.4502   13.4412 H   0  0  0  0  0  0  0  0  0  0  0  0
    2.7446   -4.0180   13.3201 H   0  0  0  0  0  0  0  0  0  0  0  0
    4.4803   -3.2778   14.9408 H   0  0  0  0  0  0  0  0  0  0  0  0
    4.4310   -2.2013   13.5479 H   0  0  0  0  0  0  0  0  0  0  0  0
    3.3198   -0.4551   14.7787 H   0  0  0  0  0  0  0  0  0  0  0  0
    4.5922   -1.0287   15.8574 H   0  0  0  0  0  0  0  0  0  0  0  0
  1  2  2  0
  2  3  1  0
  3  4  1  0
  4  5  1  0
  5  6  1  0
  6  7  1  0
  7  8  1  0
  3  9  1  0
  9 10  2  0
 10 11  1  0
 11 12  1  0
 12 13  1  0
 13 14  1  0
 14 15  1  0
 15 16  2  0
 16 17  1  0
 17 18  2  0
 18 19  1  0
 18 20  1  0
 20 21  1  0
 21 22  1  0
 22 23  1  0
 10  1  1  0
 19 15  1  0
  8  4  1  0
 23 17  1  0
  1 24  1  0
  2 25  1  0
  4 26  1  0
  5 27  1  0
  5 28  1  0
  6 29  1  0
  6 30  1  0
  7 31  1  0
  7 32  1  0
  8 33  1  0
  8 34  1  0
 11 35  1  0
 11 36  1  0
 12 37  1  0
 12 38  1  0
 13 39  1  0
 14 40  1  0
 14 41  1  0
 19 42  1  0
 20 43  1  0
 20 44  1  0
 21 45  1  0
 21 46  1  0
 22 47  1  0
 22 48  1  0
 23 49  1  0
 23 50  1  0
M  END
>  <Energy>  (38) 
628.98252024657177

>  <compound_id>  (38) 
48744

>  <target_id>  (38) 
1

>  <reference_id>  (38) 
114

>  <inspiration_ids>  (38) 
[7, 114]

>  <energy_score>  (38) 
528.718803685759

>  <distance_score>  (38) 
11.757366158758007

>  <path>  (38) 
/opt/xchem-fragalysis-2/maxwin/BulkDock/SCRATCH/511020/C48744-P114/C48744-P114.minimised.mol

>  <scratch_subdir>  (38) 
/opt/xchem-fragalysis-2/maxwin/BulkDock/SCRATCH/511020/C48744-P114

>  <fragmenstein_runtime>  (38) 
8.927087783813477

>  <fragmenstein_outcome>  (38) 
too moved

>  <fragmenstein_mode>  (38) 
expansion

>  <fragmenstein_error>  (38) 


$$$$
C48745-P7
     RDKit          3D

 39 41  0  0  0  0  0  0  0  0999 V2000
    1.2201   -0.8779   30.4770 C   0  0  0  0  0  0  0  0  0  0  0  0
    0.1654   -0.2798   29.5978 N   0  0  0  0  0  0  0  0  0  0  0  0
    1.4187    0.3326   28.8924 C   0  0  0  0  0  0  0  0  0  0  0  0
    2.2847   -0.3697   27.8308 C   0  0  0  0  0  0  0  0  0  0  0  0
    2.2795   -1.6414   27.3004 C   0  0  0  0  0  0  0  0  0  0  0  0
    3.1710   -1.6302   26.2492 N   0  0  0  0  0  0  0  0  0  0  0  0
    3.7547   -0.3997   26.2195 C   0  0  0  0  0  0  0  0  0  0  0  0
    3.2819    0.3670   27.1794 N   0  0  0  0  0  0  0  0  0  0  0  0
   -0.8644    0.3485   30.4087 C   0  0  0  0  0  0  0  0  0  0  0  0
   -0.9577    1.4778   30.8111 O   0  0  0  0  0  0  0  0  0  0  0  0
   -1.9984   -0.5447   30.8295 C   0  0  0  0  0  0  0  0  0  0  0  0
   -2.3165   -1.8876   30.5414 C   0  0  0  0  0  0  0  0  0  0  0  0
   -3.4459   -2.3230   31.1205 N   0  0  0  0  0  0  0  0  0  0  0  0
   -3.8821   -1.2609   31.8364 N   0  0  0  0  0  0  0  0  0  0  0  0
   -5.0717   -1.4008   32.6679 C   0  0  0  0  0  0  0  0  0  0  0  0
   -4.8148   -1.3223   34.1813 C   0  0  0  0  0  0  0  0  0  0  0  0
   -6.0812   -0.7115   34.8032 C   0  0  0  0  0  0  0  0  0  0  0  0
   -7.0686   -0.5278   33.6624 C   0  0  0  0  0  0  0  0  0  0  0  0
   -6.1830   -0.3756   32.4323 C   0  0  0  0  0  0  0  0  0  0  0  0
   -3.0566   -0.1770   31.6752 C   0  0  0  0  0  0  0  0  0  0  0  0
    0.6770   -1.5277   31.1796 H   0  0  0  0  0  0  0  0  0  0  0  0
    1.7074   -0.1515   31.1454 H   0  0  0  0  0  0  0  0  0  0  0  0
    1.9144   -1.5730   29.9913 H   0  0  0  0  0  0  0  0  0  0  0  0
    0.9124    1.1034   28.2853 H   0  0  0  0  0  0  0  0  0  0  0  0
    2.0270    0.9782   29.5500 H   0  0  0  0  0  0  0  0  0  0  0  0
    1.6595   -2.5044   27.4924 H   0  0  0  0  0  0  0  0  0  0  0  0
    3.2376   -2.3429   25.5318 H   0  0  0  0  0  0  0  0  0  0  0  0
    4.4685   -0.1153   25.4590 H   0  0  0  0  0  0  0  0  0  0  0  0
   -1.7543   -2.5738   29.9217 H   0  0  0  0  0  0  0  0  0  0  0  0
   -5.4810   -2.3954   32.4465 H   0  0  0  0  0  0  0  0  0  0  0  0
   -4.6182   -2.3198   34.5899 H   0  0  0  0  0  0  0  0  0  0  0  0
   -3.9457   -0.7002   34.4239 H   0  0  0  0  0  0  0  0  0  0  0  0
   -5.8333    0.2619   35.2429 H   0  0  0  0  0  0  0  0  0  0  0  0
   -6.4983   -1.3292   35.6008 H   0  0  0  0  0  0  0  0  0  0  0  0
   -7.7190    0.3378   33.8146 H   0  0  0  0  0  0  0  0  0  0  0  0
   -7.6998   -1.4149   33.5714 H   0  0  0  0  0  0  0  0  0  0  0  0
   -6.7245   -0.5617   31.5013 H   0  0  0  0  0  0  0  0  0  0  0  0
   -5.7788    0.6424   32.3843 H   0  0  0  0  0  0  0  0  0  0  0  0
   -3.2582    0.7640   32.1693 H   0  0  0  0  0  0  0  0  0  0  0  0
  1  2  1  0
  2  3  1  0
  3  4  1  0
  4  5  2  0
  5  6  1  0
  6  7  1  0
  7  8  2  0
  2  9  1  0
  9 10  2  0
  9 11  1  0
 11 12  1  0
 12 13  2  0
 13 14  1  0
 14 15  1  0
 15 16  1  0
 16 17  1  0
 17 18  1  0
 18 19  1  0
 14 20  1  0
  8  4  1  0
 20 11  2  0
 19 15  1  0
  1 21  1  0
  1 22  1  0
  1 23  1  0
  3 24  1  0
  3 25  1  0
  5 26  1  0
  6 27  1  0
  7 28  1  0
 12 29  1  0
 15 30  1  0
 16 31  1  0
 16 32  1  0
 17 33  1  0
 17 34  1  0
 18 35  1  0
 18 36  1  0
 19 37  1  0
 19 38  1  0
 20 39  1  0
M  END
>  <Energy>  (39) 
93.992513795510732

>  <compound_id>  (39) 
48745

>  <target_id>  (39) 
1

>  <reference_id>  (39) 
7

>  <inspiration_ids>  (39) 
[7, 114]

>  <energy_score>  (39) 
50.57872930002577

>  <distance_score>  (39) 
12.579069415895031

>  <path>  (39) 
/opt/xchem-fragalysis-2/maxwin/BulkDock/SCRATCH/511020/C48745-P7/C48745-P7.minimised.mol

>  <scratch_subdir>  (39) 
/opt/xchem-fragalysis-2/maxwin/BulkDock/SCRATCH/511020/C48745-P7

>  <fragmenstein_runtime>  (39) 
7.889516115188599

>  <fragmenstein_outcome>  (39) 
too moved

>  <fragmenstein_mode>  (39) 
expansion

>  <fragmenstein_error>  (39) 


$$$$
C48745-P114
     RDKit          3D

 39 41  0  0  0  0  0  0  0  0999 V2000
    1.0793   -1.5088   30.3138 C   0  0  0  0  0  0  0  0  0  0  0  0
   -0.0244   -1.5669   29.3064 N   0  0  0  0  0  0  0  0  0  0  0  0
    1.1542   -1.9918   28.3738 C   0  0  0  0  0  0  0  0  0  0  0  0
    2.1713   -1.1010   27.6333 C   0  0  0  0  0  0  0  0  0  0  0  0
    3.0552   -1.5334   26.6451 C   0  0  0  0  0  0  0  0  0  0  0  0
    3.6476   -0.4163   26.1252 N   0  0  0  0  0  0  0  0  0  0  0  0
    3.2305    0.6286   26.8971 C   0  0  0  0  0  0  0  0  0  0  0  0
    2.3471    0.2547   27.8042 N   0  0  0  0  0  0  0  0  0  0  0  0
   -1.1389   -2.3354   29.8281 C   0  0  0  0  0  0  0  0  0  0  0  0
   -1.3818   -3.5116   29.7438 O   0  0  0  0  0  0  0  0  0  0  0  0
   -2.1541   -1.6041   30.6688 C   0  0  0  0  0  0  0  0  0  0  0  0
   -2.3817   -0.2544   31.0267 C   0  0  0  0  0  0  0  0  0  0  0  0
   -3.4266   -0.0740   31.8582 N   0  0  0  0  0  0  0  0  0  0  0  0
   -3.9111   -1.3170   32.0567 N   0  0  0  0  0  0  0  0  0  0  0  0
   -4.9788   -1.5910   33.0152 C   0  0  0  0  0  0  0  0  0  0  0  0
   -4.5703   -1.3358   34.4792 C   0  0  0  0  0  0  0  0  0  0  0  0
   -5.6993   -0.5152   35.1061 C   0  0  0  0  0  0  0  0  0  0  0  0
   -6.9017   -0.7468   34.2132 C   0  0  0  0  0  0  0  0  0  0  0  0
   -6.2887   -0.8121   32.8178 C   0  0  0  0  0  0  0  0  0  0  0  0
   -3.1960   -2.2495   31.3513 C   0  0  0  0  0  0  0  0  0  0  0  0
    1.8615   -0.7658   30.1169 H   0  0  0  0  0  0  0  0  0  0  0  0
    1.4620   -2.4953   30.6172 H   0  0  0  0  0  0  0  0  0  0  0  0
    0.6116   -1.1335   31.2364 H   0  0  0  0  0  0  0  0  0  0  0  0
    1.6286   -2.9378   28.6932 H   0  0  0  0  0  0  0  0  0  0  0  0
    0.5497   -2.3696   27.5384 H   0  0  0  0  0  0  0  0  0  0  0  0
    3.1949   -2.4990   26.1849 H   0  0  0  0  0  0  0  0  0  0  0  0
    4.1710   -0.3548   25.2580 H   0  0  0  0  0  0  0  0  0  0  0  0
    3.5648    1.6433   26.7366 H   0  0  0  0  0  0  0  0  0  0  0  0
   -1.8129    0.6138   30.7180 H   0  0  0  0  0  0  0  0  0  0  0  0
   -5.2059   -2.6611   32.9124 H   0  0  0  0  0  0  0  0  0  0  0  0
   -4.4719   -2.2952   35.0007 H   0  0  0  0  0  0  0  0  0  0  0  0
   -3.6114   -0.8165   34.5824 H   0  0  0  0  0  0  0  0  0  0  0  0
   -5.4265    0.5473   35.0860 H   0  0  0  0  0  0  0  0  0  0  0  0
   -5.8858   -0.7843   36.1489 H   0  0  0  0  0  0  0  0  0  0  0  0
   -7.6296    0.0615   34.3111 H   0  0  0  0  0  0  0  0  0  0  0  0
   -7.3930   -1.6880   34.4704 H   0  0  0  0  0  0  0  0  0  0  0  0
   -6.9522   -1.3032   32.0994 H   0  0  0  0  0  0  0  0  0  0  0  0
   -6.0943    0.2014   32.4484 H   0  0  0  0  0  0  0  0  0  0  0  0
   -3.4433   -3.3013   31.4060 H   0  0  0  0  0  0  0  0  0  0  0  0
  1  2  1  0
  2  3  1  0
  3  4  1  0
  4  5  2  0
  5  6  1  0
  6  7  1  0
  7  8  2  0
  2  9  1  0
  9 10  2  0
  9 11  1  0
 11 12  1  0
 12 13  2  0
 13 14  1  0
 14 15  1  0
 15 16  1  0
 16 17  1  0
 17 18  1  0
 18 19  1  0
 14 20  1  0
  8  4  1  0
 20 11  2  0
 19 15  1  0
  1 21  1  0
  1 22  1  0
  1 23  1  0
  3 24  1  0
  3 25  1  0
  5 26  1  0
  6 27  1  0
  7 28  1  0
 12 29  1  0
 15 30  1  0
 16 31  1  0
 16 32  1  0
 17 33  1  0
 17 34  1  0
 18 35  1  0
 18 36  1  0
 19 37  1  0
 19 38  1  0
 20 39  1  0
M  END
>  <Energy>  (40) 
99.433883792315939

>  <compound_id>  (40) 
48745

>  <target_id>  (40) 
1

>  <reference_id>  (40) 
114

>  <inspiration_ids>  (40) 
[7, 114]

>  <energy_score>  (40) 
56.02009929683095

>  <distance_score>  (40) 
12.590915534720455

>  <path>  (40) 
/opt/xchem-fragalysis-2/maxwin/BulkDock/SCRATCH/511020/C48745-P114/C48745-P114.minimised.mol

>  <scratch_subdir>  (40) 
/opt/xchem-fragalysis-2/maxwin/BulkDock/SCRATCH/511020/C48745-P114

>  <fragmenstein_runtime>  (40) 
8.036206483840942

>  <fragmenstein_outcome>  (40) 
too moved

>  <fragmenstein_mode>  (40) 
expansion

>  <fragmenstein_error>  (40) 


$$$$
C17992-P7
     RDKit          3D

 45 47  0  0  0  0  0  0  0  0999 V2000
    1.3629   -4.9395   22.8500 C   0  0  0  0  0  0  0  0  0  0  0  0
    2.3479   -3.3741   23.1168 C   0  0  0  0  0  0  0  0  0  0  0  0
    1.0219   -2.9596   22.4702 C   0  0  0  0  0  0  0  0  0  0  0  0
    3.2819   -2.3131   24.4638 C   0  0  0  0  0  0  0  0  0  0  0  0
    3.0967   -2.5036   26.0821 N   0  0  0  0  0  0  0  0  0  0  0  0
    2.2469   -1.7535   27.0688 C   0  0  0  0  0  0  0  0  0  0  0  0
    1.5598   -0.7819   26.9240 O   0  0  0  0  0  0  0  0  0  0  0  0
    2.1156   -2.3258   28.4506 C   0  0  0  0  0  0  0  0  0  0  0  0
    3.0797   -2.8910   29.2662 C   0  0  0  0  0  0  0  0  0  0  0  0
    2.4485   -3.2632   30.4640 C   0  0  0  0  0  0  0  0  0  0  0  0
    1.1561   -2.9780   30.4631 N   0  0  0  0  0  0  0  0  0  0  0  0
    0.9730   -2.2735   29.3092 N   0  0  0  0  0  0  0  0  0  0  0  0
   -0.3328   -1.6017   29.1928 C   0  0  0  0  0  0  0  0  0  0  0  0
   -1.5177   -2.5530   29.4227 C   0  0  0  0  0  0  0  0  0  0  0  0
   -1.9693   -2.3557   30.8742 C   0  0  0  0  0  0  0  0  0  0  0  0
   -1.7954   -0.8674   31.0852 C   0  0  0  0  0  0  0  0  0  0  0  0
   -0.5493   -0.5019   30.2686 C   0  0  0  0  0  0  0  0  0  0  0  0
    4.7755   -1.8055   24.1593 C   0  0  0  0  0  0  0  0  0  0  0  0
    5.4608   -1.7628   23.0152 N   0  0  0  0  0  0  0  0  0  0  0  0
    6.6605   -1.1558   23.2537 C   0  0  0  0  0  0  0  0  0  0  0  0
    6.7476   -0.8122   24.5734 C   0  0  0  0  0  0  0  0  0  0  0  0
    5.5494   -1.1959   25.1233 N   0  0  0  0  0  0  0  0  0  0  0  0
    0.3237   -4.9821   23.1288 H   0  0  0  0  0  0  0  0  0  0  0  0
    1.3945   -5.2404   21.7933 H   0  0  0  0  0  0  0  0  0  0  0  0
    1.5183   -5.7535   23.5582 H   0  0  0  0  0  0  0  0  0  0  0  0
    2.3305   -3.7986   24.0790 H   0  0  0  0  0  0  0  0  0  0  0  0
    0.5376   -2.0249   22.5072 H   0  0  0  0  0  0  0  0  0  0  0  0
    0.9073   -3.3757   21.4643 H   0  0  0  0  0  0  0  0  0  0  0  0
    0.1982   -3.1898   23.0761 H   0  0  0  0  0  0  0  0  0  0  0  0
    2.7260   -1.3974   24.5092 H   0  0  0  0  0  0  0  0  0  0  0  0
    3.6018   -3.2175   26.5595 H   0  0  0  0  0  0  0  0  0  0  0  0
    4.1280   -2.9997   29.0246 H   0  0  0  0  0  0  0  0  0  0  0  0
    2.8853   -3.7384   31.3327 H   0  0  0  0  0  0  0  0  0  0  0  0
   -0.3900   -1.1815   28.1868 H   0  0  0  0  0  0  0  0  0  0  0  0
   -2.3336   -2.2416   28.7628 H   0  0  0  0  0  0  0  0  0  0  0  0
   -1.2745   -3.5957   29.2040 H   0  0  0  0  0  0  0  0  0  0  0  0
   -1.3242   -2.9179   31.5576 H   0  0  0  0  0  0  0  0  0  0  0  0
   -2.9993   -2.6709   31.0522 H   0  0  0  0  0  0  0  0  0  0  0  0
   -2.6578   -0.3169   30.6962 H   0  0  0  0  0  0  0  0  0  0  0  0
   -1.6848   -0.6070   32.1420 H   0  0  0  0  0  0  0  0  0  0  0  0
    0.3196   -0.4054   30.9302 H   0  0  0  0  0  0  0  0  0  0  0  0
   -0.6890    0.4752   29.7919 H   0  0  0  0  0  0  0  0  0  0  0  0
    7.3790   -1.0005   22.4626 H   0  0  0  0  0  0  0  0  0  0  0  0
    7.5148   -0.3290   25.1584 H   0  0  0  0  0  0  0  0  0  0  0  0
    5.2662   -1.0976   26.0858 H   0  0  0  0  0  0  0  0  0  0  0  0
  1  2  1  0
  2  3  1  0
  2  4  1  0
  4  5  1  0
  5  6  1  0
  6  7  2  0
  6  8  1  0
  8  9  2  0
  9 10  1  0
 10 11  2  0
 11 12  1  0
 12 13  1  0
 13 14  1  0
 14 15  1  0
 15 16  1  0
 16 17  1  0
  4 18  1  0
 18 19  2  0
 19 20  1  0
 20 21  2  0
 21 22  1  0
 12  8  1  0
 17 13  1  0
 22 18  1  0
  1 23  1  0
  1 24  1  0
  1 25  1  0
  2 26  1  0
  3 27  1  0
  3 28  1  0
  3 29  1  0
  4 30  1  0
  5 31  1  0
  9 32  1  0
 10 33  1  0
 13 34  1  0
 14 35  1  0
 14 36  1  0
 15 37  1  0
 15 38  1  0
 16 39  1  0
 16 40  1  0
 17 41  1  0
 17 42  1  0
 20 43  1  0
 21 44  1  0
 22 45  1  0
M  END
>  <Energy>  (41) 
236.77078536406214

>  <compound_id>  (41) 
17992

>  <target_id>  (41) 
1

>  <reference_id>  (41) 
7

>  <inspiration_ids>  (41) 
[7, 114]

>  <energy_score>  (41) 
219.10208319909862

>  <distance_score>  (41) 
14.089421700201429

>  <path>  (41) 
/opt/xchem-fragalysis-2/maxwin/BulkDock/SCRATCH/511020/C17992-P7/C17992-P7.minimised.mol

>  <scratch_subdir>  (41) 
/opt/xchem-fragalysis-2/maxwin/BulkDock/SCRATCH/511020/C17992-P7

>  <fragmenstein_runtime>  (41) 
16.359621286392212

>  <fragmenstein_outcome>  (41) 
too moved

>  <fragmenstein_mode>  (41) 
expansion

>  <fragmenstein_error>  (41) 


$$$$
C17992-P114
     RDKit          3D

 45 47  0  0  0  0  0  0  0  0999 V2000
    1.5062   -3.8819   22.8505 C   0  0  0  0  0  0  0  0  0  0  0  0
    0.6909   -5.3257   23.2410 C   0  0  0  0  0  0  0  0  0  0  0  0
    0.9227   -5.6488   21.7905 C   0  0  0  0  0  0  0  0  0  0  0  0
   -0.7248   -6.1571   24.3219 C   0  0  0  0  0  0  0  0  0  0  0  0
   -1.8155   -5.1954   25.4444 N   0  0  0  0  0  0  0  0  0  0  0  0
   -2.8442   -3.5851   25.1447 C   0  0  0  0  0  0  0  0  0  0  0  0
   -2.9304   -3.0941   24.0477 O   0  0  0  0  0  0  0  0  0  0  0  0
   -3.6925   -2.4232   26.4274 C   0  0  0  0  0  0  0  0  0  0  0  0
   -2.9210   -1.2940   26.9458 C   0  0  0  0  0  0  0  0  0  0  0  0
   -2.4870   -1.6207   28.2312 C   0  0  0  0  0  0  0  0  0  0  0  0
   -3.2950   -2.5045   28.8036 N   0  0  0  0  0  0  0  0  0  0  0  0
   -4.4467   -2.5846   27.9072 N   0  0  0  0  0  0  0  0  0  0  0  0
   -5.8339   -3.1167   28.4999 C   0  0  0  0  0  0  0  0  0  0  0  0
   -6.2301   -3.2208   30.0337 C   0  0  0  0  0  0  0  0  0  0  0  0
   -7.4777   -2.3245   30.3527 C   0  0  0  0  0  0  0  0  0  0  0  0
   -8.1196   -2.0056   29.0286 C   0  0  0  0  0  0  0  0  0  0  0  0
   -7.3575   -2.8023   28.0112 C   0  0  0  0  0  0  0  0  0  0  0  0
   -0.7644   -7.6532   23.6204 C   0  0  0  0  0  0  0  0  0  0  0  0
    0.3296   -8.0850   22.9955 N   0  0  0  0  0  0  0  0  0  0  0  0
   -0.0182   -8.8230   21.8609 C   0  0  0  0  0  0  0  0  0  0  0  0
   -1.3654   -8.9043   21.7613 C   0  0  0  0  0  0  0  0  0  0  0  0
   -1.8107   -8.2293   22.8633 N   0  0  0  0  0  0  0  0  0  0  0  0
    2.1024   -3.9143   21.9779 H   0  0  0  0  0  0  0  0  0  0  0  0
    0.8370   -3.0662   22.5654 H   0  0  0  0  0  0  0  0  0  0  0  0
    2.3255   -3.5391   23.4813 H   0  0  0  0  0  0  0  0  0  0  0  0
   -0.1433   -4.6959   23.3448 H   0  0  0  0  0  0  0  0  0  0  0  0
    1.8233   -5.5154   21.2013 H   0  0  0  0  0  0  0  0  0  0  0  0
    0.5096   -4.8388   21.1761 H   0  0  0  0  0  0  0  0  0  0  0  0
    0.8076   -6.6961   21.5829 H   0  0  0  0  0  0  0  0  0  0  0  0
   -0.1385   -6.4729   25.1883 H   0  0  0  0  0  0  0  0  0  0  0  0
   -1.7969   -5.4061   26.4671 H   0  0  0  0  0  0  0  0  0  0  0  0
   -2.4436   -0.5054   26.3807 H   0  0  0  0  0  0  0  0  0  0  0  0
   -1.6680   -1.2044   28.8022 H   0  0  0  0  0  0  0  0  0  0  0  0
   -5.6596   -4.1678   28.4063 H   0  0  0  0  0  0  0  0  0  0  0  0
   -5.4295   -3.0634   30.7622 H   0  0  0  0  0  0  0  0  0  0  0  0
   -6.5614   -4.2515   30.0554 H   0  0  0  0  0  0  0  0  0  0  0  0
   -7.1910   -1.4151   30.8962 H   0  0  0  0  0  0  0  0  0  0  0  0
   -8.2317   -2.7270   31.0033 H   0  0  0  0  0  0  0  0  0  0  0  0
   -8.0679   -0.9334   28.8112 H   0  0  0  0  0  0  0  0  0  0  0  0
   -9.1718   -2.3059   28.9772 H   0  0  0  0  0  0  0  0  0  0  0  0
   -7.5140   -2.3064   27.0575 H   0  0  0  0  0  0  0  0  0  0  0  0
   -7.8904   -3.7659   27.9520 H   0  0  0  0  0  0  0  0  0  0  0  0
    0.7274   -9.2487   21.2047 H   0  0  0  0  0  0  0  0  0  0  0  0
   -2.0316   -9.3617   21.0449 H   0  0  0  0  0  0  0  0  0  0  0  0
   -2.7776   -8.0258   23.0588 H   0  0  0  0  0  0  0  0  0  0  0  0
  1  2  1  0
  2  3  1  0
  2  4  1  0
  4  5  1  0
  5  6  1  0
  6  7  2  0
  6  8  1  0
  8  9  2  0
  9 10  1  0
 10 11  2  0
 11 12  1  0
 12 13  1  0
 13 14  1  0
 14 15  1  0
 15 16  1  0
 16 17  1  0
  4 18  1  0
 18 19  2  0
 19 20  1  0
 20 21  2  0
 21 22  1  0
 12  8  1  0
 17 13  1  0
 22 18  1  0
  1 23  1  0
  1 24  1  0
  1 25  1  0
  2 26  1  0
  3 27  1  0
  3 28  1  0
  3 29  1  0
  4 30  1  0
  5 31  1  0
  9 32  1  0
 10 33  1  0
 13 34  1  0
 14 35  1  0
 14 36  1  0
 15 37  1  0
 15 38  1  0
 16 39  1  0
 16 40  1  0
 17 41  1  0
 17 42  1  0
 20 43  1  0
 21 44  1  0
 22 45  1  0
M  END
>  <Energy>  (42) 
543.18285898276497

>  <compound_id>  (42) 
17992

>  <target_id>  (42) 
1

>  <reference_id>  (42) 
114

>  <inspiration_ids>  (42) 
[7, 114]

>  <energy_score>  (42) 
525.5141568177946

>  <distance_score>  (42) 
13.96022480004647

>  <path>  (42) 
/opt/xchem-fragalysis-2/maxwin/BulkDock/SCRATCH/511020/C17992-P114/C17992-P114.minimised.mol

>  <scratch_subdir>  (42) 
/opt/xchem-fragalysis-2/maxwin/BulkDock/SCRATCH/511020/C17992-P114

>  <fragmenstein_runtime>  (42) 
16.71712851524353

>  <fragmenstein_outcome>  (42) 
too moved

>  <fragmenstein_mode>  (42) 
expansion

>  <fragmenstein_error>  (42) 


$$$$
C17993-P7
     RDKit          3D

 36 38  0  0  0  0  0  0  0  0999 V2000
    2.9715   -2.2155   29.2572 O   0  0  0  0  0  0  0  0  0  0  0  0
    2.1642   -2.1063   28.3786 C   0  0  0  0  0  0  0  0  0  0  0  0
    2.3421   -1.8475   26.9512 N   0  0  0  0  0  0  0  0  0  0  0  0
    3.5626   -1.5406   26.1623 C   0  0  0  0  0  0  0  0  0  0  0  0
    4.0411   -2.3127   24.9155 C   0  0  0  0  0  0  0  0  0  0  0  0
    5.2712   -2.2448   24.4176 N   0  0  0  0  0  0  0  0  0  0  0  0
    5.4161   -3.2674   23.4746 C   0  0  0  0  0  0  0  0  0  0  0  0
    4.2415   -3.9421   23.3496 C   0  0  0  0  0  0  0  0  0  0  0  0
    3.3890   -3.2405   24.1535 N   0  0  0  0  0  0  0  0  0  0  0  0
    0.6655   -2.1404   28.8432 C   0  0  0  0  0  0  0  0  0  0  0  0
   -0.3644   -1.2227   28.4587 C   0  0  0  0  0  0  0  0  0  0  0  0
   -1.4218   -1.4115   29.3234 C   0  0  0  0  0  0  0  0  0  0  0  0
   -1.0629   -2.4223   30.1640 N   0  0  0  0  0  0  0  0  0  0  0  0
   -1.8268   -2.9855   31.2788 C   0  0  0  0  0  0  0  0  0  0  0  0
   -2.7931   -4.1009   30.8743 C   0  0  0  0  0  0  0  0  0  0  0  0
   -3.6645   -4.2760   32.1186 C   0  0  0  0  0  0  0  0  0  0  0  0
   -3.9476   -2.8497   32.5647 C   0  0  0  0  0  0  0  0  0  0  0  0
   -2.7181   -2.0355   32.1231 C   0  0  0  0  0  0  0  0  0  0  0  0
    0.1942   -2.8895   29.8837 N   0  0  0  0  0  0  0  0  0  0  0  0
    1.4483   -1.9019   26.4933 H   0  0  0  0  0  0  0  0  0  0  0  0
    4.3885   -1.5453   26.8833 H   0  0  0  0  0  0  0  0  0  0  0  0
    3.4381   -0.4973   25.8501 H   0  0  0  0  0  0  0  0  0  0  0  0
    6.3597   -3.4599   22.9840 H   0  0  0  0  0  0  0  0  0  0  0  0
    3.9203   -4.7704   22.7381 H   0  0  0  0  0  0  0  0  0  0  0  0
    2.3956   -3.3264   24.1436 H   0  0  0  0  0  0  0  0  0  0  0  0
   -0.2906   -0.4484   27.7098 H   0  0  0  0  0  0  0  0  0  0  0  0
   -2.3502   -0.8761   29.4152 H   0  0  0  0  0  0  0  0  0  0  0  0
   -1.0743   -3.4101   31.9594 H   0  0  0  0  0  0  0  0  0  0  0  0
   -2.2720   -5.0246   30.6042 H   0  0  0  0  0  0  0  0  0  0  0  0
   -3.4106   -3.7953   30.0220 H   0  0  0  0  0  0  0  0  0  0  0  0
   -3.1008   -4.8056   32.8960 H   0  0  0  0  0  0  0  0  0  0  0  0
   -4.5692   -4.8495   31.9126 H   0  0  0  0  0  0  0  0  0  0  0  0
   -4.8430   -2.4691   32.0616 H   0  0  0  0  0  0  0  0  0  0  0  0
   -4.1192   -2.7839   33.6434 H   0  0  0  0  0  0  0  0  0  0  0  0
   -3.0368   -1.1438   31.5766 H   0  0  0  0  0  0  0  0  0  0  0  0
   -2.1573   -1.6821   32.9963 H   0  0  0  0  0  0  0  0  0  0  0  0
  1  2  2  0
  2  3  1  0
  3  4  1  0
  4  5  1  0
  5  6  2  0
  6  7  1  0
  7  8  2  0
  8  9  1  0
  2 10  1  0
 10 11  1  0
 11 12  2  0
 12 13  1  0
 13 14  1  0
 14 15  1  0
 15 16  1  0
 16 17  1  0
 17 18  1  0
 13 19  1  0
  9  5  1  0
 19 10  2  0
 18 14  1  0
  3 20  1  0
  4 21  1  0
  4 22  1  0
  7 23  1  0
  8 24  1  0
  9 25  1  0
 11 26  1  0
 12 27  1  0
 14 28  1  0
 15 29  1  0
 15 30  1  0
 16 31  1  0
 16 32  1  0
 17 33  1  0
 17 34  1  0
 18 35  1  0
 18 36  1  0
M  END
>  <Energy>  (43) 
68.784498408518971

>  <compound_id>  (43) 
17993

>  <target_id>  (43) 
1

>  <reference_id>  (43) 
7

>  <inspiration_ids>  (43) 
[7, 114]

>  <energy_score>  (43) 
12.300863168131542

>  <distance_score>  (43) 
12.867955349101956

>  <path>  (43) 
/opt/xchem-fragalysis-2/maxwin/BulkDock/SCRATCH/511020/C17993-P7/C17993-P7.minimised.mol

>  <scratch_subdir>  (43) 
/opt/xchem-fragalysis-2/maxwin/BulkDock/SCRATCH/511020/C17993-P7

>  <fragmenstein_runtime>  (43) 
7.393826484680176

>  <fragmenstein_outcome>  (43) 
too moved

>  <fragmenstein_mode>  (43) 
expansion

>  <fragmenstein_error>  (43) 


$$$$
C17993-P114
     RDKit          3D

 36 38  0  0  0  0  0  0  0  0999 V2000
   -6.1778    4.8800   27.5850 O   0  0  0  0  0  0  0  0  0  0  0  0
   -5.5123    4.0813   28.1801 C   0  0  0  0  0  0  0  0  0  0  0  0
   -4.3287    3.3386   27.7662 N   0  0  0  0  0  0  0  0  0  0  0  0
   -3.6403    3.2634   26.4537 C   0  0  0  0  0  0  0  0  0  0  0  0
   -2.1400    3.0223   26.2249 C   0  0  0  0  0  0  0  0  0  0  0  0
   -1.5884    2.6580   25.0596 N   0  0  0  0  0  0  0  0  0  0  0  0
   -0.2344    2.8859   25.1763 C   0  0  0  0  0  0  0  0  0  0  0  0
    0.0754    3.2392   26.4613 C   0  0  0  0  0  0  0  0  0  0  0  0
   -1.1327    3.3241   27.1140 N   0  0  0  0  0  0  0  0  0  0  0  0
   -6.1162    3.7432   29.5764 C   0  0  0  0  0  0  0  0  0  0  0  0
   -7.1605    4.5241   30.1788 C   0  0  0  0  0  0  0  0  0  0  0  0
   -7.5360    3.8871   31.3344 C   0  0  0  0  0  0  0  0  0  0  0  0
   -6.7412    2.7839   31.4337 N   0  0  0  0  0  0  0  0  0  0  0  0
   -6.8407    1.7445   32.4531 C   0  0  0  0  0  0  0  0  0  0  0  0
   -5.5465    1.4083   33.1947 C   0  0  0  0  0  0  0  0  0  0  0  0
   -6.0327    0.4999   34.3314 C   0  0  0  0  0  0  0  0  0  0  0  0
   -7.4005    1.0414   34.7371 C   0  0  0  0  0  0  0  0  0  0  0  0
   -7.7793    2.0429   33.6438 C   0  0  0  0  0  0  0  0  0  0  0  0
   -5.8871    2.6605   30.3664 N   0  0  0  0  0  0  0  0  0  0  0  0
   -3.9775    2.8115   28.5553 H   0  0  0  0  0  0  0  0  0  0  0  0
   -3.9035    4.1866   25.9232 H   0  0  0  0  0  0  0  0  0  0  0  0
   -4.1643    2.4557   25.9319 H   0  0  0  0  0  0  0  0  0  0  0  0
    0.4399    2.7803   24.3383 H   0  0  0  0  0  0  0  0  0  0  0  0
    1.0076    3.4804   26.9517 H   0  0  0  0  0  0  0  0  0  0  0  0
   -1.2729    3.6491   28.0608 H   0  0  0  0  0  0  0  0  0  0  0  0
   -7.5931    5.4280   29.7701 H   0  0  0  0  0  0  0  0  0  0  0  0
   -8.3000    4.1328   32.0575 H   0  0  0  0  0  0  0  0  0  0  0  0
   -7.1808    0.8467   31.9282 H   0  0  0  0  0  0  0  0  0  0  0  0
   -5.0803    2.3150   33.6000 H   0  0  0  0  0  0  0  0  0  0  0  0
   -4.8079    0.9078   32.5624 H   0  0  0  0  0  0  0  0  0  0  0  0
   -6.1366   -0.5285   33.9648 H   0  0  0  0  0  0  0  0  0  0  0  0
   -5.3288    0.4846   35.1689 H   0  0  0  0  0  0  0  0  0  0  0  0
   -8.1235    0.2261   34.8259 H   0  0  0  0  0  0  0  0  0  0  0  0
   -7.3554    1.5411   35.7109 H   0  0  0  0  0  0  0  0  0  0  0  0
   -7.5945    3.0549   34.0288 H   0  0  0  0  0  0  0  0  0  0  0  0
   -8.8373    2.0018   33.3740 H   0  0  0  0  0  0  0  0  0  0  0  0
  1  2  2  0
  2  3  1  0
  3  4  1  0
  4  5  1  0
  5  6  2  0
  6  7  1  0
  7  8  2  0
  8  9  1  0
  2 10  1  0
 10 11  1  0
 11 12  2  0
 12 13  1  0
 13 14  1  0
 14 15  1  0
 15 16  1  0
 16 17  1  0
 17 18  1  0
 13 19  1  0
  9  5  1  0
 19 10  2  0
 18 14  1  0
  3 20  1  0
  4 21  1  0
  4 22  1  0
  7 23  1  0
  8 24  1  0
  9 25  1  0
 11 26  1  0
 12 27  1  0
 14 28  1  0
 15 29  1  0
 15 30  1  0
 16 31  1  0
 16 32  1  0
 17 33  1  0
 17 34  1  0
 18 35  1  0
 18 36  1  0
M  END
>  <Energy>  (44) 
54.507848900881172

>  <compound_id>  (44) 
17993

>  <target_id>  (44) 
1

>  <reference_id>  (44) 
114

>  <inspiration_ids>  (44) 
[7, 114]

>  <energy_score>  (44) 
-1.9757863395062145

>  <distance_score>  (44) 
13.092171037725567

>  <path>  (44) 
/opt/xchem-fragalysis-2/maxwin/BulkDock/SCRATCH/511020/C17993-P114/C17993-P114.minimised.mol

>  <scratch_subdir>  (44) 
/opt/xchem-fragalysis-2/maxwin/BulkDock/SCRATCH/511020/C17993-P114

>  <fragmenstein_runtime>  (44) 
8.440550565719604

>  <fragmenstein_outcome>  (44) 
too moved

>  <fragmenstein_mode>  (44) 
expansion

>  <fragmenstein_error>  (44) 


$$$$
C48746-P7
     RDKit          3D

 46 49  0  0  0  0  0  0  0  0999 V2000
    1.6601    3.1981   25.6263 O   0  0  0  0  0  0  0  0  0  0  0  0
    2.1884    2.1214   25.6055 C   0  0  0  0  0  0  0  0  0  0  0  0
    3.0104    1.4686   24.5483 N   0  0  0  0  0  0  0  0  0  0  0  0
    3.3577    1.9222   23.1079 C   0  0  0  0  0  0  0  0  0  0  0  0
    3.9612    0.7978   21.7512 C   0  0  0  0  0  0  0  0  0  0  0  0
    4.8134   -0.3334   20.4926 N   0  0  0  0  0  0  0  0  0  0  0  0
    3.6826   -1.2835   18.8617 C   0  0  0  0  0  0  0  0  0  0  0  0
    2.0036   -0.5930   19.3481 C   0  0  0  0  0  0  0  0  0  0  0  0
    2.1961    0.6789   20.8455 N   0  0  0  0  0  0  0  0  0  0  0  0
    1.1044   -0.2788   18.1428 C   0  0  0  0  0  0  0  0  0  0  0  0
    1.5855   -0.9394   16.8488 C   0  0  0  0  0  0  0  0  0  0  0  0
    3.0460   -0.6088   16.5307 C   0  0  0  0  0  0  0  0  0  0  0  0
    4.0094   -1.3973   17.4211 C   0  0  0  0  0  0  0  0  0  0  0  0
    1.8750    1.1855   26.8747 C   0  0  0  0  0  0  0  0  0  0  0  0
    2.6522    0.0809   27.3239 C   0  0  0  0  0  0  0  0  0  0  0  0
    1.9374   -0.5443   28.3149 C   0  0  0  0  0  0  0  0  0  0  0  0
    0.7738    0.1577   28.4807 N   0  0  0  0  0  0  0  0  0  0  0  0
   -0.1447   -0.1745   29.5660 C   0  0  0  0  0  0  0  0  0  0  0  0
   -0.9166   -1.4903   29.4120 C   0  0  0  0  0  0  0  0  0  0  0  0
   -1.8043   -1.5174   30.6656 C   0  0  0  0  0  0  0  0  0  0  0  0
   -2.1153   -0.0497   30.9677 C   0  0  0  0  0  0  0  0  0  0  0  0
   -1.2541    0.7737   29.9932 C   0  0  0  0  0  0  0  0  0  0  0  0
    0.7160    1.2396   27.6327 N   0  0  0  0  0  0  0  0  0  0  0  0
    3.2284    0.5189   24.8330 H   0  0  0  0  0  0  0  0  0  0  0  0
    3.6166    2.9908   23.1126 H   0  0  0  0  0  0  0  0  0  0  0  0
    2.3860    2.1767   22.6788 H   0  0  0  0  0  0  0  0  0  0  0  0
    1.8696    1.5728   20.5425 H   0  0  0  0  0  0  0  0  0  0  0  0
    0.0792   -0.6068   18.3241 H   0  0  0  0  0  0  0  0  0  0  0  0
    1.0942    0.8060   17.9793 H   0  0  0  0  0  0  0  0  0  0  0  0
    1.4482   -2.0265   16.9048 H   0  0  0  0  0  0  0  0  0  0  0  0
    0.9538   -0.5840   16.0257 H   0  0  0  0  0  0  0  0  0  0  0  0
    3.2542   -0.8617   15.4842 H   0  0  0  0  0  0  0  0  0  0  0  0
    3.2175    0.4695   16.6368 H   0  0  0  0  0  0  0  0  0  0  0  0
    5.0179   -1.0574   17.2318 H   0  0  0  0  0  0  0  0  0  0  0  0
    3.8822   -2.4506   17.1551 H   0  0  0  0  0  0  0  0  0  0  0  0
    3.6060   -0.2473   26.9352 H   0  0  0  0  0  0  0  0  0  0  0  0
    2.1602   -1.4228   28.9047 H   0  0  0  0  0  0  0  0  0  0  0  0
    0.5210   -0.2820   30.4382 H   0  0  0  0  0  0  0  0  0  0  0  0
   -0.2621   -2.3663   29.3649 H   0  0  0  0  0  0  0  0  0  0  0  0
   -1.5313   -1.4763   28.5036 H   0  0  0  0  0  0  0  0  0  0  0  0
   -2.6922   -2.1379   30.5346 H   0  0  0  0  0  0  0  0  0  0  0  0
   -1.2389   -1.9454   31.5027 H   0  0  0  0  0  0  0  0  0  0  0  0
   -1.8484    0.1829   32.0050 H   0  0  0  0  0  0  0  0  0  0  0  0
   -3.1708    0.1909   30.8477 H   0  0  0  0  0  0  0  0  0  0  0  0
   -1.8482    1.1042   29.1338 H   0  0  0  0  0  0  0  0  0  0  0  0
   -0.8187    1.6463   30.4842 H   0  0  0  0  0  0  0  0  0  0  0  0
  1  2  2  0
  2  3  1  0
  3  4  1  0
  4  5  1  0
  5  6  2  0
  6  7  1  0
  7  8  2  0
  8  9  1  0
  8 10  1  0
 10 11  1  0
 11 12  1  0
 12 13  1  0
  2 14  1  0
 14 15  1  0
 15 16  2  0
 16 17  1  0
 17 18  1  0
 18 19  1  0
 19 20  1  0
 20 21  1  0
 21 22  1  0
 17 23  1  0
  9  5  1  0
 23 14  2  0
 13  7  1  0
 22 18  1  0
  3 24  1  0
  4 25  1  0
  4 26  1  0
  9 27  1  0
 10 28  1  0
 10 29  1  0
 11 30  1  0
 11 31  1  0
 12 32  1  0
 12 33  1  0
 13 34  1  0
 13 35  1  0
 15 36  1  0
 16 37  1  0
 18 38  1  0
 19 39  1  0
 19 40  1  0
 20 41  1  0
 20 42  1  0
 21 43  1  0
 21 44  1  0
 22 45  1  0
 22 46  1  0
M  END
>  <Energy>  (45) 
828.1748271249121

>  <compound_id>  (45) 
48746

>  <target_id>  (45) 
1

>  <reference_id>  (45) 
7

>  <inspiration_ids>  (45) 
[7, 114]

>  <energy_score>  (45) 
757.3182206476964

>  <distance_score>  (45) 
14.452737708807614

>  <path>  (45) 
/opt/xchem-fragalysis-2/maxwin/BulkDock/SCRATCH/511020/C48746-P7/C48746-P7.minimised.mol

>  <scratch_subdir>  (45) 
/opt/xchem-fragalysis-2/maxwin/BulkDock/SCRATCH/511020/C48746-P7

>  <fragmenstein_runtime>  (45) 
11.878783941268921

>  <fragmenstein_outcome>  (45) 
too moved

>  <fragmenstein_mode>  (45) 
expansion

>  <fragmenstein_error>  (45) 


$$$$
C48746-P114
     RDKit          3D

 46 49  0  0  0  0  0  0  0  0999 V2000
    5.5581   -1.3806   26.0590 O   0  0  0  0  0  0  0  0  0  0  0  0
    4.6177   -1.5487   25.3208 C   0  0  0  0  0  0  0  0  0  0  0  0
    4.5844   -1.9380   23.8281 N   0  0  0  0  0  0  0  0  0  0  0  0
    5.8789   -2.1538   22.6742 C   0  0  0  0  0  0  0  0  0  0  0  0
    6.3502   -1.0415   21.3043 C   0  0  0  0  0  0  0  0  0  0  0  0
    7.1622   -1.2701   20.2261 N   0  0  0  0  0  0  0  0  0  0  0  0
    7.2962   -0.0901   19.4111 C   0  0  0  0  0  0  0  0  0  0  0  0
    6.7650    0.9739   20.1653 C   0  0  0  0  0  0  0  0  0  0  0  0
    6.0278    0.3211   21.1775 N   0  0  0  0  0  0  0  0  0  0  0  0
    6.5343    2.5281   19.5910 C   0  0  0  0  0  0  0  0  0  0  0  0
    7.3461    3.0330   18.2019 C   0  0  0  0  0  0  0  0  0  0  0  0
    8.2141    1.9447   17.4029 C   0  0  0  0  0  0  0  0  0  0  0  0
    8.0154    0.2735   17.7287 C   0  0  0  0  0  0  0  0  0  0  0  0
    3.2343   -1.3682   26.1459 C   0  0  0  0  0  0  0  0  0  0  0  0
    2.8616   -0.1006   26.7571 C   0  0  0  0  0  0  0  0  0  0  0  0
    1.8475   -0.3222   27.6691 C   0  0  0  0  0  0  0  0  0  0  0  0
    1.6399   -1.6716   27.6736 N   0  0  0  0  0  0  0  0  0  0  0  0
    0.6311   -2.3974   28.4668 C   0  0  0  0  0  0  0  0  0  0  0  0
    1.0399   -2.6658   29.9191 C   0  0  0  0  0  0  0  0  0  0  0  0
   -0.2611   -3.1264   30.5975 C   0  0  0  0  0  0  0  0  0  0  0  0
   -1.3782   -2.3371   29.9265 C   0  0  0  0  0  0  0  0  0  0  0  0
   -0.7532   -1.7175   28.6670 C   0  0  0  0  0  0  0  0  0  0  0  0
    2.5989   -2.3266   26.9140 N   0  0  0  0  0  0  0  0  0  0  0  0
    3.6271   -1.9121   23.4978 H   0  0  0  0  0  0  0  0  0  0  0  0
    6.7883   -2.2592   23.2786 H   0  0  0  0  0  0  0  0  0  0  0  0
    5.6822   -3.1212   22.1967 H   0  0  0  0  0  0  0  0  0  0  0  0
    5.2935    0.7691   21.7130 H   0  0  0  0  0  0  0  0  0  0  0  0
    5.4948    2.5917   19.2416 H   0  0  0  0  0  0  0  0  0  0  0  0
    6.5920    3.2555   20.4097 H   0  0  0  0  0  0  0  0  0  0  0  0
    6.5900    3.5179   17.5548 H   0  0  0  0  0  0  0  0  0  0  0  0
    7.9310    3.9580   18.2891 H   0  0  0  0  0  0  0  0  0  0  0  0
    9.2800    2.1838   17.4573 H   0  0  0  0  0  0  0  0  0  0  0  0
    8.0290    2.0781   16.3268 H   0  0  0  0  0  0  0  0  0  0  0  0
    7.4786   -0.2505   16.9191 H   0  0  0  0  0  0  0  0  0  0  0  0
    9.0292    0.0346   17.5014 H   0  0  0  0  0  0  0  0  0  0  0  0
    3.3241    0.8498   26.5355 H   0  0  0  0  0  0  0  0  0  0  0  0
    1.3005    0.3551   28.3071 H   0  0  0  0  0  0  0  0  0  0  0  0
    0.4797   -3.3566   27.9565 H   0  0  0  0  0  0  0  0  0  0  0  0
    1.8276   -3.4222   29.9949 H   0  0  0  0  0  0  0  0  0  0  0  0
    1.4075   -1.7497   30.3978 H   0  0  0  0  0  0  0  0  0  0  0  0
   -0.4078   -4.1981   30.4176 H   0  0  0  0  0  0  0  0  0  0  0  0
   -0.2340   -2.9708   31.6801 H   0  0  0  0  0  0  0  0  0  0  0  0
   -1.7578   -1.5502   30.5871 H   0  0  0  0  0  0  0  0  0  0  0  0
   -2.2186   -2.9924   29.6768 H   0  0  0  0  0  0  0  0  0  0  0  0
   -0.6504   -0.6381   28.8231 H   0  0  0  0  0  0  0  0  0  0  0  0
   -1.4011   -1.8467   27.7977 H   0  0  0  0  0  0  0  0  0  0  0  0
  1  2  2  0
  2  3  1  0
  3  4  1  0
  4  5  1  0
  5  6  2  0
  6  7  1  0
  7  8  2  0
  8  9  1  0
  8 10  1  0
 10 11  1  0
 11 12  1  0
 12 13  1  0
  2 14  1  0
 14 15  1  0
 15 16  2  0
 16 17  1  0
 17 18  1  0
 18 19  1  0
 19 20  1  0
 20 21  1  0
 21 22  1  0
 17 23  1  0
  9  5  1  0
 23 14  2  0
 13  7  1  0
 22 18  1  0
  3 24  1  0
  4 25  1  0
  4 26  1  0
  9 27  1  0
 10 28  1  0
 10 29  1  0
 11 30  1  0
 11 31  1  0
 12 32  1  0
 12 33  1  0
 13 34  1  0
 13 35  1  0
 15 36  1  0
 16 37  1  0
 18 38  1  0
 19 39  1  0
 19 40  1  0
 20 41  1  0
 20 42  1  0
 21 43  1  0
 21 44  1  0
 22 45  1  0
 22 46  1  0
M  END
>  <Energy>  (46) 
237.75946390196569

>  <compound_id>  (46) 
48746

>  <target_id>  (46) 
1

>  <reference_id>  (46) 
114

>  <inspiration_ids>  (46) 
[7, 114]

>  <energy_score>  (46) 
166.902857424759

>  <distance_score>  (46) 
14.284004165915478

>  <path>  (46) 
/opt/xchem-fragalysis-2/maxwin/BulkDock/SCRATCH/511020/C48746-P114/C48746-P114.minimised.mol

>  <scratch_subdir>  (46) 
/opt/xchem-fragalysis-2/maxwin/BulkDock/SCRATCH/511020/C48746-P114

>  <fragmenstein_runtime>  (46) 
10.215837717056274

>  <fragmenstein_outcome>  (46) 
too moved

>  <fragmenstein_mode>  (46) 
expansion

>  <fragmenstein_error>  (46) 


$$$$
C17994-P7
     RDKit          3D

 39 41  0  0  0  0  0  0  0  0999 V2000
    2.0053   -3.3875   29.5287 C   0  0  0  0  0  0  0  0  0  0  0  0
    1.2150   -4.2637   28.5528 C   0  0  0  0  0  0  0  0  0  0  0  0
    0.1105   -4.9032   29.2957 N   0  0  0  0  0  0  0  0  0  0  0  0
   -1.2552   -4.4720   29.5231 C   0  0  0  0  0  0  0  0  0  0  0  0
   -1.8543   -3.5282   29.0988 O   0  0  0  0  0  0  0  0  0  0  0  0
   -2.0081   -5.2994   30.5144 C   0  0  0  0  0  0  0  0  0  0  0  0
   -1.8658   -6.6439   30.9109 C   0  0  0  0  0  0  0  0  0  0  0  0
   -2.7633   -7.0405   31.8151 N   0  0  0  0  0  0  0  0  0  0  0  0
   -3.5027   -5.9451   32.0575 N   0  0  0  0  0  0  0  0  0  0  0  0
   -4.4975   -5.9811   33.1201 C   0  0  0  0  0  0  0  0  0  0  0  0
   -3.8831   -6.2710   34.5035 C   0  0  0  0  0  0  0  0  0  0  0  0
   -4.8367   -7.2508   35.1992 C   0  0  0  0  0  0  0  0  0  0  0  0
   -6.1170   -7.2242   34.3828 C   0  0  0  0  0  0  0  0  0  0  0  0
   -5.5787   -7.0635   32.9679 C   0  0  0  0  0  0  0  0  0  0  0  0
   -3.1113   -4.8852   31.2757 C   0  0  0  0  0  0  0  0  0  0  0  0
    2.1519   -5.1732   27.7640 C   0  0  0  0  0  0  0  0  0  0  0  0
    3.4366   -4.9529   27.5150 N   0  0  0  0  0  0  0  0  0  0  0  0
    3.8540   -5.9461   26.6606 C   0  0  0  0  0  0  0  0  0  0  0  0
    2.8144   -6.7899   26.3714 C   0  0  0  0  0  0  0  0  0  0  0  0
    1.7513   -6.3017   27.0838 N   0  0  0  0  0  0  0  0  0  0  0  0
    2.5119   -3.9977   30.2854 H   0  0  0  0  0  0  0  0  0  0  0  0
    2.7657   -2.7945   29.0088 H   0  0  0  0  0  0  0  0  0  0  0  0
    1.3422   -2.6919   30.0553 H   0  0  0  0  0  0  0  0  0  0  0  0
    0.7351   -3.5875   27.8381 H   0  0  0  0  0  0  0  0  0  0  0  0
    0.3068   -5.7025   29.8835 H   0  0  0  0  0  0  0  0  0  0  0  0
   -1.1477   -7.3761   30.5655 H   0  0  0  0  0  0  0  0  0  0  0  0
   -4.9654   -4.9904   33.1466 H   0  0  0  0  0  0  0  0  0  0  0  0
   -2.8774   -6.7035   34.4544 H   0  0  0  0  0  0  0  0  0  0  0  0
   -3.7869   -5.3371   35.0646 H   0  0  0  0  0  0  0  0  0  0  0  0
   -4.9807   -7.0114   36.2522 H   0  0  0  0  0  0  0  0  0  0  0  0
   -4.4024   -8.2580   35.1607 H   0  0  0  0  0  0  0  0  0  0  0  0
   -6.7362   -6.3711   34.6709 H   0  0  0  0  0  0  0  0  0  0  0  0
   -6.7043   -8.1385   34.5026 H   0  0  0  0  0  0  0  0  0  0  0  0
   -6.3488   -6.8094   32.2419 H   0  0  0  0  0  0  0  0  0  0  0  0
   -5.1410   -8.0132   32.6334 H   0  0  0  0  0  0  0  0  0  0  0  0
   -3.6097   -3.9269   31.3296 H   0  0  0  0  0  0  0  0  0  0  0  0
    4.8709   -6.0065   26.2950 H   0  0  0  0  0  0  0  0  0  0  0  0
    2.7457   -7.6708   25.7496 H   0  0  0  0  0  0  0  0  0  0  0  0
    0.8198   -6.6903   27.1037 H   0  0  0  0  0  0  0  0  0  0  0  0
  1  2  1  0
  2  3  1  0
  3  4  1  0
  4  5  2  0
  4  6  1  0
  6  7  1  0
  7  8  2  0
  8  9  1  0
  9 10  1  0
 10 11  1  0
 11 12  1  0
 12 13  1  0
 13 14  1  0
  9 15  1  0
  2 16  1  0
 16 17  2  0
 17 18  1  0
 18 19  2  0
 19 20  1  0
 15  6  2  0
 20 16  1  0
 14 10  1  0
  1 21  1  0
  1 22  1  0
  1 23  1  0
  2 24  1  0
  3 25  1  0
  7 26  1  0
 10 27  1  0
 11 28  1  0
 11 29  1  0
 12 30  1  0
 12 31  1  0
 13 32  1  0
 13 33  1  0
 14 34  1  0
 14 35  1  0
 15 36  1  0
 18 37  1  0
 19 38  1  0
 20 39  1  0
M  END
>  <Energy>  (47) 
7.2952632223224354

>  <compound_id>  (47) 
17994

>  <target_id>  (47) 
1

>  <reference_id>  (47) 
7

>  <inspiration_ids>  (47) 
[7, 114]

>  <energy_score>  (47) 
-15.506997041225588

>  <distance_score>  (47) 
13.083329706775794

>  <path>  (47) 
/opt/xchem-fragalysis-2/maxwin/BulkDock/SCRATCH/511020/C17994-P7/C17994-P7.minimised.mol

>  <scratch_subdir>  (47) 
/opt/xchem-fragalysis-2/maxwin/BulkDock/SCRATCH/511020/C17994-P7

>  <fragmenstein_runtime>  (47) 
11.144004344940186

>  <fragmenstein_outcome>  (47) 
too moved

>  <fragmenstein_mode>  (47) 
expansion

>  <fragmenstein_error>  (47) 


$$$$
C17994-P114
     RDKit          3D

 39 41  0  0  0  0  0  0  0  0999 V2000
    2.4065    0.6706   29.8640 C   0  0  0  0  0  0  0  0  0  0  0  0
    1.4706    0.1434   28.7712 C   0  0  0  0  0  0  0  0  0  0  0  0
    0.2560   -0.3903   29.4166 N   0  0  0  0  0  0  0  0  0  0  0  0
   -0.9204    0.2850   29.9313 C   0  0  0  0  0  0  0  0  0  0  0  0
   -1.2362    1.4381   29.8896 O   0  0  0  0  0  0  0  0  0  0  0  0
   -1.8748   -0.5597   30.7357 C   0  0  0  0  0  0  0  0  0  0  0  0
   -2.0667   -1.9478   30.9209 C   0  0  0  0  0  0  0  0  0  0  0  0
   -3.0506   -2.2585   31.7808 N   0  0  0  0  0  0  0  0  0  0  0  0
   -3.5206   -1.0634   32.1962 N   0  0  0  0  0  0  0  0  0  0  0  0
   -4.4331   -1.0043   33.3323 C   0  0  0  0  0  0  0  0  0  0  0  0
   -5.0601    0.3619   33.6335 C   0  0  0  0  0  0  0  0  0  0  0  0
   -6.2028    0.0156   34.5818 C   0  0  0  0  0  0  0  0  0  0  0  0
   -6.8042   -1.2269   33.9574 C   0  0  0  0  0  0  0  0  0  0  0  0
   -5.6469   -1.9495   33.2601 C   0  0  0  0  0  0  0  0  0  0  0  0
   -2.8732   -0.0311   31.5679 C   0  0  0  0  0  0  0  0  0  0  0  0
    2.2535   -0.7622   27.8275 C   0  0  0  0  0  0  0  0  0  0  0  0
    2.3717   -2.0762   27.8364 N   0  0  0  0  0  0  0  0  0  0  0  0
    3.2272   -2.3919   26.7999 C   0  0  0  0  0  0  0  0  0  0  0  0
    3.6894   -1.2614   26.1771 C   0  0  0  0  0  0  0  0  0  0  0  0
    3.0805   -0.2352   26.8412 N   0  0  0  0  0  0  0  0  0  0  0  0
    1.8919    1.3934   30.5069 H   0  0  0  0  0  0  0  0  0  0  0  0
    2.7628   -0.1452   30.5040 H   0  0  0  0  0  0  0  0  0  0  0  0
    3.2834    1.1684   29.4358 H   0  0  0  0  0  0  0  0  0  0  0  0
    1.1246    1.0084   28.1903 H   0  0  0  0  0  0  0  0  0  0  0  0
    0.1543   -1.3869   29.5599 H   0  0  0  0  0  0  0  0  0  0  0  0
   -1.5213   -2.7641   30.4652 H   0  0  0  0  0  0  0  0  0  0  0  0
   -3.8203   -1.2966   34.1974 H   0  0  0  0  0  0  0  0  0  0  0  0
   -4.3477    1.0558   34.0905 H   0  0  0  0  0  0  0  0  0  0  0  0
   -5.4523    0.8252   32.7202 H   0  0  0  0  0  0  0  0  0  0  0  0
   -5.8083   -0.2139   35.5788 H   0  0  0  0  0  0  0  0  0  0  0  0
   -6.9283    0.8269   34.6808 H   0  0  0  0  0  0  0  0  0  0  0  0
   -7.5367   -0.9456   33.1980 H   0  0  0  0  0  0  0  0  0  0  0  0
   -7.3121   -1.8373   34.7056 H   0  0  0  0  0  0  0  0  0  0  0  0
   -5.9204   -2.1806   32.2243 H   0  0  0  0  0  0  0  0  0  0  0  0
   -5.4155   -2.8976   33.7580 H   0  0  0  0  0  0  0  0  0  0  0  0
   -3.1160    1.0017   31.7781 H   0  0  0  0  0  0  0  0  0  0  0  0
    3.4255   -3.4234   26.5410 H   0  0  0  0  0  0  0  0  0  0  0  0
    4.3111   -1.1023   25.3087 H   0  0  0  0  0  0  0  0  0  0  0  0
    3.1744    0.7450   26.6190 H   0  0  0  0  0  0  0  0  0  0  0  0
  1  2  1  0
  2  3  1  0
  3  4  1  0
  4  5  2  0
  4  6  1  0
  6  7  1  0
  7  8  2  0
  8  9  1  0
  9 10  1  0
 10 11  1  0
 11 12  1  0
 12 13  1  0
 13 14  1  0
  9 15  1  0
  2 16  1  0
 16 17  2  0
 17 18  1  0
 18 19  2  0
 19 20  1  0
 15  6  2  0
 20 16  1  0
 14 10  1  0
  1 21  1  0
  1 22  1  0
  1 23  1  0
  2 24  1  0
  3 25  1  0
  7 26  1  0
 10 27  1  0
 11 28  1  0
 11 29  1  0
 12 30  1  0
 12 31  1  0
 13 32  1  0
 13 33  1  0
 14 34  1  0
 14 35  1  0
 15 36  1  0
 18 37  1  0
 19 38  1  0
 20 39  1  0
M  END
>  <Energy>  (48) 
8.5661033861140847

>  <compound_id>  (48) 
17994

>  <target_id>  (48) 
1

>  <reference_id>  (48) 
114

>  <inspiration_ids>  (48) 
[7, 114]

>  <energy_score>  (48) 
-14.236156877434212

>  <distance_score>  (48) 
12.439260321299805

>  <path>  (48) 
/opt/xchem-fragalysis-2/maxwin/BulkDock/SCRATCH/511020/C17994-P114/C17994-P114.minimised.mol

>  <scratch_subdir>  (48) 
/opt/xchem-fragalysis-2/maxwin/BulkDock/SCRATCH/511020/C17994-P114

>  <fragmenstein_runtime>  (48) 
11.592432975769043

>  <fragmenstein_outcome>  (48) 
too moved

>  <fragmenstein_mode>  (48) 
expansion

>  <fragmenstein_error>  (48) 


$$$$
C17995-P7
     RDKit          3D

 43 45  0  0  0  0  0  0  0  0999 V2000
    0.4896    0.7940   28.1742 C   0  0  0  0  0  0  0  0  0  0  0  0
    0.8301   -0.7016   28.3050 C   0  0  0  0  0  0  0  0  0  0  0  0
    0.4956   -1.2510   29.6710 N   0  0  0  0  0  0  0  0  0  0  0  0
   -0.8609   -0.8410   30.2027 C   0  0  0  0  0  0  0  0  0  0  0  0
   -1.3980   -1.6117   31.4710 C   0  0  0  0  0  0  0  0  0  0  0  0
   -2.6259   -1.0156   32.2077 C   0  0  0  0  0  0  0  0  0  0  0  0
   -2.8684    0.3510   32.4942 C   0  0  0  0  0  0  0  0  0  0  0  0
   -4.0078    0.3944   33.2603 C   0  0  0  0  0  0  0  0  0  0  0  0
   -4.3877   -0.9009   33.4499 N   0  0  0  0  0  0  0  0  0  0  0  0
   -5.4532   -1.3461   34.3389 C   0  0  0  0  0  0  0  0  0  0  0  0
   -5.3036   -0.8404   35.7897 C   0  0  0  0  0  0  0  0  0  0  0  0
   -6.7251   -0.5985   36.3208 C   0  0  0  0  0  0  0  0  0  0  0  0
   -7.6707   -1.0577   35.2232 C   0  0  0  0  0  0  0  0  0  0  0  0
   -6.8611   -0.8766   33.9450 C   0  0  0  0  0  0  0  0  0  0  0  0
   -3.5769   -1.7834   32.7959 N   0  0  0  0  0  0  0  0  0  0  0  0
    2.3078   -0.8813   27.8276 C   0  0  0  0  0  0  0  0  0  0  0  0
    3.3741   -0.2111   28.2470 N   0  0  0  0  0  0  0  0  0  0  0  0
    4.4002   -0.4988   27.3673 C   0  0  0  0  0  0  0  0  0  0  0  0
    3.9667   -1.3456   26.3860 C   0  0  0  0  0  0  0  0  0  0  0  0
    2.6687   -1.6300   26.7183 N   0  0  0  0  0  0  0  0  0  0  0  0
   -0.5875    0.9735   28.2522 H   0  0  0  0  0  0  0  0  0  0  0  0
    0.8060    1.1893   27.2024 H   0  0  0  0  0  0  0  0  0  0  0  0
    0.9950    1.3853   28.9466 H   0  0  0  0  0  0  0  0  0  0  0  0
    0.2003   -1.2525   27.5993 H   0  0  0  0  0  0  0  0  0  0  0  0
    1.2179   -0.9020   30.3057 H   0  0  0  0  0  0  0  0  0  0  0  0
   -1.6044   -0.9689   29.4063 H   0  0  0  0  0  0  0  0  0  0  0  0
   -0.8159    0.2259   30.4471 H   0  0  0  0  0  0  0  0  0  0  0  0
   -0.5881   -1.6640   32.2102 H   0  0  0  0  0  0  0  0  0  0  0  0
   -1.6320   -2.6427   31.1775 H   0  0  0  0  0  0  0  0  0  0  0  0
   -2.2649    1.1948   32.1942 H   0  0  0  0  0  0  0  0  0  0  0  0
   -4.5369    1.2209   33.7111 H   0  0  0  0  0  0  0  0  0  0  0  0
   -5.4205   -2.4422   34.3439 H   0  0  0  0  0  0  0  0  0  0  0  0
   -4.7652   -1.5731   36.3996 H   0  0  0  0  0  0  0  0  0  0  0  0
   -4.7301    0.0905   35.8617 H   0  0  0  0  0  0  0  0  0  0  0  0
   -6.8628    0.4737   36.5058 H   0  0  0  0  0  0  0  0  0  0  0  0
   -6.9098   -1.1151   37.2673 H   0  0  0  0  0  0  0  0  0  0  0  0
   -7.9353   -2.1088   35.3652 H   0  0  0  0  0  0  0  0  0  0  0  0
   -8.5934   -0.4746   35.2249 H   0  0  0  0  0  0  0  0  0  0  0  0
   -6.8621    0.1806   33.6524 H   0  0  0  0  0  0  0  0  0  0  0  0
   -7.2640   -1.4450   33.1043 H   0  0  0  0  0  0  0  0  0  0  0  0
    5.3833   -0.0645   27.4862 H   0  0  0  0  0  0  0  0  0  0  0  0
    4.4421   -1.7755   25.5159 H   0  0  0  0  0  0  0  0  0  0  0  0
    2.0508   -2.2042   26.1597 H   0  0  0  0  0  0  0  0  0  0  0  0
  1  2  1  0
  2  3  1  0
  3  4  1  0
  4  5  1  0
  5  6  1  0
  6  7  1  0
  7  8  2  0
  8  9  1  0
  9 10  1  0
 10 11  1  0
 11 12  1  0
 12 13  1  0
 13 14  1  0
  9 15  1  0
  2 16  1  0
 16 17  2  0
 17 18  1  0
 18 19  2  0
 19 20  1  0
 15  6  2  0
 20 16  1  0
 14 10  1  0
  1 21  1  0
  1 22  1  0
  1 23  1  0
  2 24  1  0
  3 25  1  0
  4 26  1  0
  4 27  1  0
  5 28  1  0
  5 29  1  0
  7 30  1  0
  8 31  1  0
 10 32  1  0
 11 33  1  0
 11 34  1  0
 12 35  1  0
 12 36  1  0
 13 37  1  0
 13 38  1  0
 14 39  1  0
 14 40  1  0
 18 41  1  0
 19 42  1  0
 20 43  1  0
M  END
>  <Energy>  (49) 
45.602566710794783

>  <compound_id>  (49) 
17995

>  <target_id>  (49) 
1

>  <reference_id>  (49) 
7

>  <inspiration_ids>  (49) 
[7, 114]

>  <energy_score>  (49) 
-10.330666718972395

>  <distance_score>  (49) 
11.546129206217588

>  <path>  (49) 
/opt/xchem-fragalysis-2/maxwin/BulkDock/SCRATCH/511020/C17995-P7/C17995-P7.minimised.mol

>  <scratch_subdir>  (49) 
/opt/xchem-fragalysis-2/maxwin/BulkDock/SCRATCH/511020/C17995-P7

>  <fragmenstein_runtime>  (49) 
9.36856198310852

>  <fragmenstein_outcome>  (49) 
too moved

>  <fragmenstein_mode>  (49) 
expansion

>  <fragmenstein_error>  (49) 


$$$$
C17995-P114
     RDKit          3D

 43 45  0  0  0  0  0  0  0  0999 V2000
   -3.0761    5.6929   24.2740 C   0  0  0  0  0  0  0  0  0  0  0  0
   -2.9936    4.1616   24.3802 C   0  0  0  0  0  0  0  0  0  0  0  0
   -3.3173    3.7362   25.7801 N   0  0  0  0  0  0  0  0  0  0  0  0
   -4.8107    3.7648   26.0860 C   0  0  0  0  0  0  0  0  0  0  0  0
   -5.1150    3.8557   27.6100 C   0  0  0  0  0  0  0  0  0  0  0  0
   -6.5495    3.6777   28.1423 C   0  0  0  0  0  0  0  0  0  0  0  0
   -7.0587    4.2312   29.3552 C   0  0  0  0  0  0  0  0  0  0  0  0
   -8.3091    3.6899   29.5330 C   0  0  0  0  0  0  0  0  0  0  0  0
   -8.5400    2.9052   28.4393 N   0  0  0  0  0  0  0  0  0  0  0  0
   -9.7902    2.2647   28.0546 C   0  0  0  0  0  0  0  0  0  0  0  0
  -10.9838    2.4656   28.9963 C   0  0  0  0  0  0  0  0  0  0  0  0
  -11.9828    1.3790   28.6048 C   0  0  0  0  0  0  0  0  0  0  0  0
  -11.1614    0.2518   27.9788 C   0  0  0  0  0  0  0  0  0  0  0  0
   -9.7131    0.7441   27.9046 C   0  0  0  0  0  0  0  0  0  0  0  0
   -7.4795    2.8841   27.5798 N   0  0  0  0  0  0  0  0  0  0  0  0
   -1.5966    3.7212   23.8443 C   0  0  0  0  0  0  0  0  0  0  0  0
   -1.3376    3.1919   22.6538 N   0  0  0  0  0  0  0  0  0  0  0  0
    0.0143    3.3616   22.4430 C   0  0  0  0  0  0  0  0  0  0  0  0
    0.6218    3.8201   23.5845 C   0  0  0  0  0  0  0  0  0  0  0  0
   -0.4027    4.0166   24.4756 N   0  0  0  0  0  0  0  0  0  0  0  0
   -2.8172    6.0268   23.2623 H   0  0  0  0  0  0  0  0  0  0  0  0
   -2.3816    6.1809   24.9680 H   0  0  0  0  0  0  0  0  0  0  0  0
   -4.0818    6.0664   24.4886 H   0  0  0  0  0  0  0  0  0  0  0  0
   -3.7302    3.7362   23.6921 H   0  0  0  0  0  0  0  0  0  0  0  0
   -3.0515    2.7536   25.8619 H   0  0  0  0  0  0  0  0  0  0  0  0
   -5.2639    2.8585   25.6714 H   0  0  0  0  0  0  0  0  0  0  0  0
   -5.2887    4.6192   25.5967 H   0  0  0  0  0  0  0  0  0  0  0  0
   -4.7614    4.8367   27.9566 H   0  0  0  0  0  0  0  0  0  0  0  0
   -4.4923    3.1198   28.1276 H   0  0  0  0  0  0  0  0  0  0  0  0
   -6.5624    4.9230   30.0206 H   0  0  0  0  0  0  0  0  0  0  0  0
   -9.0391    3.8386   30.3145 H   0  0  0  0  0  0  0  0  0  0  0  0
  -10.0511    2.7016   27.0799 H   0  0  0  0  0  0  0  0  0  0  0  0
  -10.6984    2.3404   30.0455 H   0  0  0  0  0  0  0  0  0  0  0  0
  -11.4182    3.4664   28.8990 H   0  0  0  0  0  0  0  0  0  0  0  0
  -12.5763    1.0392   29.4592 H   0  0  0  0  0  0  0  0  0  0  0  0
  -12.6860    1.7731   27.8614 H   0  0  0  0  0  0  0  0  0  0  0  0
  -11.5377    0.0437   26.9700 H   0  0  0  0  0  0  0  0  0  0  0  0
  -11.2422   -0.6845   28.5388 H   0  0  0  0  0  0  0  0  0  0  0  0
   -9.2511    0.4601   26.9521 H   0  0  0  0  0  0  0  0  0  0  0  0
   -9.0952    0.2967   28.6857 H   0  0  0  0  0  0  0  0  0  0  0  0
    0.4792    3.1120   21.4967 H   0  0  0  0  0  0  0  0  0  0  0  0
    1.6522    4.0388   23.8265 H   0  0  0  0  0  0  0  0  0  0  0  0
   -0.3298    4.4288   25.3960 H   0  0  0  0  0  0  0  0  0  0  0  0
  1  2  1  0
  2  3  1  0
  3  4  1  0
  4  5  1  0
  5  6  1  0
  6  7  1  0
  7  8  2  0
  8  9  1  0
  9 10  1  0
 10 11  1  0
 11 12  1  0
 12 13  1  0
 13 14  1  0
  9 15  1  0
  2 16  1  0
 16 17  2  0
 17 18  1  0
 18 19  2  0
 19 20  1  0
 15  6  2  0
 20 16  1  0
 14 10  1  0
  1 21  1  0
  1 22  1  0
  1 23  1  0
  2 24  1  0
  3 25  1  0
  4 26  1  0
  4 27  1  0
  5 28  1  0
  5 29  1  0
  7 30  1  0
  8 31  1  0
 10 32  1  0
 11 33  1  0
 11 34  1  0
 12 35  1  0
 12 36  1  0
 13 37  1  0
 13 38  1  0
 14 39  1  0
 14 40  1  0
 18 41  1  0
 19 42  1  0
 20 43  1  0
M  END
>  <Energy>  (50) 
43.428889490140413

>  <compound_id>  (50) 
17995

>  <target_id>  (50) 
1

>  <reference_id>  (50) 
114

>  <inspiration_ids>  (50) 
[7, 114]

>  <energy_score>  (50) 
-12.504343939625073

>  <distance_score>  (50) 
12.920247132802587

>  <path>  (50) 
/opt/xchem-fragalysis-2/maxwin/BulkDock/SCRATCH/511020/C17995-P114/C17995-P114.minimised.mol

>  <scratch_subdir>  (50) 
/opt/xchem-fragalysis-2/maxwin/BulkDock/SCRATCH/511020/C17995-P114

>  <fragmenstein_runtime>  (50) 
10.576178073883057

>  <fragmenstein_outcome>  (50) 
too moved

>  <fragmenstein_mode>  (50) 
expansion

>  <fragmenstein_error>  (50) 


$$$$
C17996-P7
     RDKit          3D

 40 42  0  0  0  0  0  0  0  0999 V2000
   -1.1653   -2.7143   31.2498 O   0  0  0  0  0  0  0  0  0  0  0  0
   -0.9660   -1.6300   30.7856 C   0  0  0  0  0  0  0  0  0  0  0  0
    0.1162   -1.1480   29.9219 N   0  0  0  0  0  0  0  0  0  0  0  0
    1.3518   -1.8249   29.4364 C   0  0  0  0  0  0  0  0  0  0  0  0
    1.1789   -3.3517   29.2794 C   0  0  0  0  0  0  0  0  0  0  0  0
    0.2501   -3.7052   28.2581 O   0  0  0  0  0  0  0  0  0  0  0  0
    2.1061   -1.1753   28.2430 C   0  0  0  0  0  0  0  0  0  0  0  0
    2.7414   -0.0093   28.2405 N   0  0  0  0  0  0  0  0  0  0  0  0
    3.5448    0.0093   27.1143 C   0  0  0  0  0  0  0  0  0  0  0  0
    3.3898   -1.1431   26.3955 C   0  0  0  0  0  0  0  0  0  0  0  0
    2.4341   -1.8522   27.0762 N   0  0  0  0  0  0  0  0  0  0  0  0
   -1.9339   -0.5677   31.2166 C   0  0  0  0  0  0  0  0  0  0  0  0
   -2.1113    0.7203   30.7194 C   0  0  0  0  0  0  0  0  0  0  0  0
   -3.1127    1.3283   31.4878 C   0  0  0  0  0  0  0  0  0  0  0  0
   -3.5810    0.5173   32.4213 N   0  0  0  0  0  0  0  0  0  0  0  0
   -2.9214   -0.6551   32.2331 N   0  0  0  0  0  0  0  0  0  0  0  0
   -3.3261   -1.7602   33.1129 C   0  0  0  0  0  0  0  0  0  0  0  0
   -4.7142   -2.3338   32.7934 C   0  0  0  0  0  0  0  0  0  0  0  0
   -5.7045   -1.4095   33.5108 C   0  0  0  0  0  0  0  0  0  0  0  0
   -4.9860   -0.9588   34.7748 C   0  0  0  0  0  0  0  0  0  0  0  0
   -3.5147   -1.3549   34.5935 C   0  0  0  0  0  0  0  0  0  0  0  0
    0.0146   -0.1523   29.7886 H   0  0  0  0  0  0  0  0  0  0  0  0
    2.0430   -1.6980   30.2820 H   0  0  0  0  0  0  0  0  0  0  0  0
    0.8429   -3.8124   30.2132 H   0  0  0  0  0  0  0  0  0  0  0  0
    2.1367   -3.8195   29.0302 H   0  0  0  0  0  0  0  0  0  0  0  0
   -0.6085   -3.3059   28.5002 H   0  0  0  0  0  0  0  0  0  0  0  0
    4.1858    0.8519   26.8918 H   0  0  0  0  0  0  0  0  0  0  0  0
    3.8160   -1.5016   25.4680 H   0  0  0  0  0  0  0  0  0  0  0  0
    2.0318   -2.7287   26.7677 H   0  0  0  0  0  0  0  0  0  0  0  0
   -1.5811    1.1835   29.8998 H   0  0  0  0  0  0  0  0  0  0  0  0
   -3.5161    2.3294   31.4059 H   0  0  0  0  0  0  0  0  0  0  0  0
   -2.5568   -2.5301   33.0478 H   0  0  0  0  0  0  0  0  0  0  0  0
   -4.9167   -2.4195   31.7251 H   0  0  0  0  0  0  0  0  0  0  0  0
   -4.7909   -3.3409   33.2225 H   0  0  0  0  0  0  0  0  0  0  0  0
   -6.6613   -1.8735   33.7395 H   0  0  0  0  0  0  0  0  0  0  0  0
   -5.9369   -0.5417   32.8841 H   0  0  0  0  0  0  0  0  0  0  0  0
   -5.4017   -1.4328   35.6675 H   0  0  0  0  0  0  0  0  0  0  0  0
   -5.0893    0.1234   34.9093 H   0  0  0  0  0  0  0  0  0  0  0  0
   -2.8352   -0.5565   34.9102 H   0  0  0  0  0  0  0  0  0  0  0  0
   -3.3083   -2.2253   35.2298 H   0  0  0  0  0  0  0  0  0  0  0  0
  1  2  2  0
  2  3  1  0
  3  4  1  0
  4  5  1  0
  5  6  1  0
  4  7  1  0
  7  8  2  0
  8  9  1  0
  9 10  2  0
 10 11  1  0
  2 12  1  0
 12 13  2  0
 13 14  1  0
 14 15  2  0
 15 16  1  0
 16 17  1  0
 17 18  1  0
 18 19  1  0
 19 20  1  0
 20 21  1  0
 11  7  1  0
 16 12  1  0
 21 17  1  0
  3 22  1  0
  4 23  1  0
  5 24  1  0
  5 25  1  0
  6 26  1  0
  9 27  1  0
 10 28  1  0
 11 29  1  0
 13 30  1  0
 14 31  1  0
 17 32  1  0
 18 33  1  0
 18 34  1  0
 19 35  1  0
 19 36  1  0
 20 37  1  0
 20 38  1  0
 21 39  1  0
 21 40  1  0
M  END
>  <Energy>  (51) 
13.657740246607126

>  <compound_id>  (51) 
17996

>  <target_id>  (51) 
1

>  <reference_id>  (51) 
7

>  <inspiration_ids>  (51) 
[7, 114]

>  <energy_score>  (51) 
-33.22012484942789

>  <distance_score>  (51) 
12.640742881027913

>  <path>  (51) 
/opt/xchem-fragalysis-2/maxwin/BulkDock/SCRATCH/511020/C17996-P7/C17996-P7.minimised.mol

>  <scratch_subdir>  (51) 
/opt/xchem-fragalysis-2/maxwin/BulkDock/SCRATCH/511020/C17996-P7

>  <fragmenstein_runtime>  (51) 
18.750125408172607

>  <fragmenstein_outcome>  (51) 
too moved

>  <fragmenstein_mode>  (51) 
expansion

>  <fragmenstein_error>  (51) 


$$$$
C17996-P114
     RDKit          3D

 40 42  0  0  0  0  0  0  0  0999 V2000
   -0.7398   -2.8622   31.0645 O   0  0  0  0  0  0  0  0  0  0  0  0
   -0.5705   -1.7609   30.6301 C   0  0  0  0  0  0  0  0  0  0  0  0
    0.5059   -1.2227   29.7963 N   0  0  0  0  0  0  0  0  0  0  0  0
    1.7700   -1.8463   29.3141 C   0  0  0  0  0  0  0  0  0  0  0  0
    1.6448   -3.3775   29.1649 C   0  0  0  0  0  0  0  0  0  0  0  0
    0.6818   -3.7520   28.1815 O   0  0  0  0  0  0  0  0  0  0  0  0
    2.5145   -1.2020   28.1149 C   0  0  0  0  0  0  0  0  0  0  0  0
    3.3310   -0.1551   28.1576 N   0  0  0  0  0  0  0  0  0  0  0  0
    4.0111   -0.1174   26.9555 C   0  0  0  0  0  0  0  0  0  0  0  0
    3.6213   -1.1552   26.1566 C   0  0  0  0  0  0  0  0  0  0  0  0
    2.6467   -1.8042   26.8735 N   0  0  0  0  0  0  0  0  0  0  0  0
   -1.5729   -0.7482   31.1002 C   0  0  0  0  0  0  0  0  0  0  0  0
   -1.6727    0.6167   30.8486 C   0  0  0  0  0  0  0  0  0  0  0  0
   -2.7027    1.1133   31.6648 C   0  0  0  0  0  0  0  0  0  0  0  0
   -3.2624    0.1607   32.3945 N   0  0  0  0  0  0  0  0  0  0  0  0
   -2.6598   -0.9824   31.9804 N   0  0  0  0  0  0  0  0  0  0  0  0
   -3.1948   -2.2310   32.5342 C   0  0  0  0  0  0  0  0  0  0  0  0
   -2.7068   -2.4789   33.9708 C   0  0  0  0  0  0  0  0  0  0  0  0
   -3.9158   -2.2005   34.8628 C   0  0  0  0  0  0  0  0  0  0  0  0
   -5.0803   -2.7216   34.0466 C   0  0  0  0  0  0  0  0  0  0  0  0
   -4.7478   -2.2894   32.6253 C   0  0  0  0  0  0  0  0  0  0  0  0
    0.3726   -0.2284   29.6857 H   0  0  0  0  0  0  0  0  0  0  0  0
    2.4539   -1.6919   30.1611 H   0  0  0  0  0  0  0  0  0  0  0  0
    1.3618   -3.8496   30.1108 H   0  0  0  0  0  0  0  0  0  0  0  0
    2.6056   -3.8111   28.8765 H   0  0  0  0  0  0  0  0  0  0  0  0
   -0.1793   -3.4066   28.4871 H   0  0  0  0  0  0  0  0  0  0  0  0
    4.7334    0.6591   26.7409 H   0  0  0  0  0  0  0  0  0  0  0  0
    3.8789   -1.4586   25.1511 H   0  0  0  0  0  0  0  0  0  0  0  0
    2.1085   -2.5960   26.5399 H   0  0  0  0  0  0  0  0  0  0  0  0
   -1.0503    1.2112   30.1958 H   0  0  0  0  0  0  0  0  0  0  0  0
   -3.0517    2.1328   31.7682 H   0  0  0  0  0  0  0  0  0  0  0  0
   -2.8672   -3.0382   31.8761 H   0  0  0  0  0  0  0  0  0  0  0  0
   -1.8428   -1.8700   34.2559 H   0  0  0  0  0  0  0  0  0  0  0  0
   -2.4192   -3.5326   34.0760 H   0  0  0  0  0  0  0  0  0  0  0  0
   -4.0205   -1.1225   35.0325 H   0  0  0  0  0  0  0  0  0  0  0  0
   -3.8238   -2.6898   35.8353 H   0  0  0  0  0  0  0  0  0  0  0  0
   -5.1276   -3.8148   34.1049 H   0  0  0  0  0  0  0  0  0  0  0  0
   -6.0330   -2.3064   34.3833 H   0  0  0  0  0  0  0  0  0  0  0  0
   -5.1531   -2.9920   31.8921 H   0  0  0  0  0  0  0  0  0  0  0  0
   -5.2244   -1.3249   32.4321 H   0  0  0  0  0  0  0  0  0  0  0  0
  1  2  2  0
  2  3  1  0
  3  4  1  0
  4  5  1  0
  5  6  1  0
  4  7  1  0
  7  8  2  0
  8  9  1  0
  9 10  2  0
 10 11  1  0
  2 12  1  0
 12 13  2  0
 13 14  1  0
 14 15  2  0
 15 16  1  0
 16 17  1  0
 17 18  1  0
 18 19  1  0
 19 20  1  0
 20 21  1  0
 11  7  1  0
 16 12  1  0
 21 17  1  0
  3 22  1  0
  4 23  1  0
  5 24  1  0
  5 25  1  0
  6 26  1  0
  9 27  1  0
 10 28  1  0
 11 29  1  0
 13 30  1  0
 14 31  1  0
 17 32  1  0
 18 33  1  0
 18 34  1  0
 19 35  1  0
 19 36  1  0
 20 37  1  0
 20 38  1  0
 21 39  1  0
 21 40  1  0
M  END
>  <Energy>  (52) 
12.955126378041584

>  <compound_id>  (52) 
17996

>  <target_id>  (52) 
1

>  <reference_id>  (52) 
114

>  <inspiration_ids>  (52) 
[7, 114]

>  <energy_score>  (52) 
-33.92273871799392

>  <distance_score>  (52) 
12.605767511918378

>  <path>  (52) 
/opt/xchem-fragalysis-2/maxwin/BulkDock/SCRATCH/511020/C17996-P114/C17996-P114.minimised.mol

>  <scratch_subdir>  (52) 
/opt/xchem-fragalysis-2/maxwin/BulkDock/SCRATCH/511020/C17996-P114

>  <fragmenstein_runtime>  (52) 
20.944955348968506

>  <fragmenstein_outcome>  (52) 
too moved

>  <fragmenstein_mode>  (52) 
expansion

>  <fragmenstein_error>  (52) 


$$$$
C17997-P7
     RDKit          3D

 42 44  0  0  0  0  0  0  0  0999 V2000
   -0.0882   -0.9256   29.2048 O   0  0  0  0  0  0  0  0  0  0  0  0
   -0.6710   -1.9249   28.8776 C   0  0  0  0  0  0  0  0  0  0  0  0
   -1.7677   -2.5232   29.8086 C   0  0  0  0  0  0  0  0  0  0  0  0
   -2.3885   -1.7807   31.0179 C   0  0  0  0  0  0  0  0  0  0  0  0
   -2.2343   -0.4452   31.4689 C   0  0  0  0  0  0  0  0  0  0  0  0
   -3.1274   -0.2794   32.5070 C   0  0  0  0  0  0  0  0  0  0  0  0
   -3.7825   -1.4687   32.6498 N   0  0  0  0  0  0  0  0  0  0  0  0
   -4.8626   -1.7688   33.5877 C   0  0  0  0  0  0  0  0  0  0  0  0
   -4.5680   -1.3732   35.0496 C   0  0  0  0  0  0  0  0  0  0  0  0
   -5.8148   -0.6444   35.5703 C   0  0  0  0  0  0  0  0  0  0  0  0
   -6.9276   -0.9878   34.5978 C   0  0  0  0  0  0  0  0  0  0  0  0
   -6.1968   -1.0722   33.2638 C   0  0  0  0  0  0  0  0  0  0  0  0
   -3.3402   -2.4041   31.7669 N   0  0  0  0  0  0  0  0  0  0  0  0
   -0.5361   -2.7715   27.6522 N   0  0  0  0  0  0  0  0  0  0  0  0
    0.4099   -2.5544   26.2384 C   0  0  0  0  0  0  0  0  0  0  0  0
    1.9936   -2.6449   26.8891 C   0  0  0  0  0  0  0  0  0  0  0  0
    3.1874   -2.0414   26.1332 C   0  0  0  0  0  0  0  0  0  0  0  0
    3.7458   -2.4159   24.9942 N   0  0  0  0  0  0  0  0  0  0  0  0
    4.8248   -1.5781   24.7911 C   0  0  0  0  0  0  0  0  0  0  0  0
    4.9869   -0.7353   25.8560 C   0  0  0  0  0  0  0  0  0  0  0  0
    3.9286   -1.0103   26.6737 N   0  0  0  0  0  0  0  0  0  0  0  0
   -2.6112   -2.6749   29.1361 H   0  0  0  0  0  0  0  0  0  0  0  0
   -1.3892   -3.4883   30.1634 H   0  0  0  0  0  0  0  0  0  0  0  0
   -1.5650    0.3039   31.0660 H   0  0  0  0  0  0  0  0  0  0  0  0
   -3.3404    0.5722   33.1359 H   0  0  0  0  0  0  0  0  0  0  0  0
   -5.0059   -2.8563   33.5503 H   0  0  0  0  0  0  0  0  0  0  0  0
   -3.6824   -0.7403   35.1682 H   0  0  0  0  0  0  0  0  0  0  0  0
   -4.3780   -2.2762   35.6386 H   0  0  0  0  0  0  0  0  0  0  0  0
   -5.6318    0.4371   35.5505 H   0  0  0  0  0  0  0  0  0  0  0  0
   -6.0573   -0.9153   36.6017 H   0  0  0  0  0  0  0  0  0  0  0  0
   -7.3826   -1.9427   34.8682 H   0  0  0  0  0  0  0  0  0  0  0  0
   -7.7153   -0.2292   34.5880 H   0  0  0  0  0  0  0  0  0  0  0  0
   -6.0251   -0.0584   32.8826 H   0  0  0  0  0  0  0  0  0  0  0  0
   -6.7696   -1.6112   32.5050 H   0  0  0  0  0  0  0  0  0  0  0  0
   -1.2499   -3.4980   27.6669 H   0  0  0  0  0  0  0  0  0  0  0  0
   -0.1463   -2.9299   24.3676 H   0  0  0  0  0  0  0  0  0  0  0  0
    0.4185   -1.4300   26.5476 H   0  0  0  0  0  0  0  0  0  0  0  0
    1.9519   -2.1069   27.8486 H   0  0  0  0  0  0  0  0  0  0  0  0
    2.1393   -3.6697   27.2043 H   0  0  0  0  0  0  0  0  0  0  0  0
    5.4267   -1.6326   23.8963 H   0  0  0  0  0  0  0  0  0  0  0  0
    5.7201    0.0186   26.0866 H   0  0  0  0  0  0  0  0  0  0  0  0
    3.7308   -0.5651   27.5565 H   0  0  0  0  0  0  0  0  0  0  0  0
  1  2  2  0
  2  3  1  0
  3  4  1  0
  4  5  1  0
  5  6  2  0
  6  7  1  0
  7  8  1  0
  8  9  1  0
  9 10  1  0
 10 11  1  0
 11 12  1  0
  7 13  1  0
  2 14  1  0
 14 15  1  0
 15 16  1  0
 16 17  1  0
 17 18  2  0
 18 19  1  0
 19 20  2  0
 20 21  1  0
 13  4  2  0
 21 17  1  0
 12  8  1  0
  3 22  1  0
  3 23  1  0
  5 24  1  0
  6 25  1  0
  8 26  1  0
  9 27  1  0
  9 28  1  0
 10 29  1  0
 10 30  1  0
 11 31  1  0
 11 32  1  0
 12 33  1  0
 12 34  1  0
 14 35  1  0
 15 36  1  0
 15 37  1  0
 16 38  1  0
 16 39  1  0
 19 40  1  0
 20 41  1  0
 21 42  1  0
M  END
>  <Energy>  (53) 
395.71083860825775

>  <compound_id>  (53) 
17997

>  <target_id>  (53) 
1

>  <reference_id>  (53) 
7

>  <inspiration_ids>  (53) 
[7, 114]

>  <energy_score>  (53) 
345.88927993566017

>  <distance_score>  (53) 
11.28325093339513

>  <path>  (53) 
/opt/xchem-fragalysis-2/maxwin/BulkDock/SCRATCH/511020/C17997-P7/C17997-P7.minimised.mol

>  <scratch_subdir>  (53) 
/opt/xchem-fragalysis-2/maxwin/BulkDock/SCRATCH/511020/C17997-P7

>  <fragmenstein_runtime>  (53) 
17.58362340927124

>  <fragmenstein_outcome>  (53) 
too moved

>  <fragmenstein_mode>  (53) 
expansion

>  <fragmenstein_error>  (53) 


$$$$
C17997-P114
     RDKit          3D

 42 44  0  0  0  0  0  0  0  0999 V2000
   -1.0952   -2.2559   31.4651 O   0  0  0  0  0  0  0  0  0  0  0  0
   -1.1113   -1.1143   31.0971 C   0  0  0  0  0  0  0  0  0  0  0  0
   -2.2387   -0.1402   31.6223 C   0  0  0  0  0  0  0  0  0  0  0  0
   -3.3933   -0.7175   32.4692 C   0  0  0  0  0  0  0  0  0  0  0  0
   -3.7915   -2.0685   32.6354 C   0  0  0  0  0  0  0  0  0  0  0  0
   -4.8831   -2.0522   33.4665 C   0  0  0  0  0  0  0  0  0  0  0  0
   -5.1330   -0.7410   33.7512 N   0  0  0  0  0  0  0  0  0  0  0  0
   -6.1035   -0.2753   34.7311 C   0  0  0  0  0  0  0  0  0  0  0  0
   -6.6127    1.1602   34.5722 C   0  0  0  0  0  0  0  0  0  0  0  0
   -7.9188    1.2128   35.3859 C   0  0  0  0  0  0  0  0  0  0  0  0
   -8.3248   -0.2330   35.6517 C   0  0  0  0  0  0  0  0  0  0  0  0
   -7.4268   -1.0490   34.7384 C   0  0  0  0  0  0  0  0  0  0  0  0
   -4.2470    0.1000   33.1413 N   0  0  0  0  0  0  0  0  0  0  0  0
   -0.1733   -0.3717   30.2420 N   0  0  0  0  0  0  0  0  0  0  0  0
    1.1327   -0.7724   29.6499 C   0  0  0  0  0  0  0  0  0  0  0  0
    1.2334   -0.7381   28.1014 C   0  0  0  0  0  0  0  0  0  0  0  0
    2.6526   -0.7956   27.5278 C   0  0  0  0  0  0  0  0  0  0  0  0
    3.7099   -0.1166   27.9401 N   0  0  0  0  0  0  0  0  0  0  0  0
    4.7348   -0.4212   27.0720 C   0  0  0  0  0  0  0  0  0  0  0  0
    4.2957   -1.2620   26.0879 C   0  0  0  0  0  0  0  0  0  0  0  0
    2.9905   -1.5192   26.3983 N   0  0  0  0  0  0  0  0  0  0  0  0
   -2.6800    0.3548   30.7498 H   0  0  0  0  0  0  0  0  0  0  0  0
   -1.7352    0.6254   32.2266 H   0  0  0  0  0  0  0  0  0  0  0  0
   -3.3201   -2.9500   32.2229 H   0  0  0  0  0  0  0  0  0  0  0  0
   -5.4611   -2.8610   33.8861 H   0  0  0  0  0  0  0  0  0  0  0  0
   -5.6092   -0.3801   35.7066 H   0  0  0  0  0  0  0  0  0  0  0  0
   -6.8269    1.3848   33.5196 H   0  0  0  0  0  0  0  0  0  0  0  0
   -5.8856    1.8990   34.9245 H   0  0  0  0  0  0  0  0  0  0  0  0
   -8.6924    1.7502   34.8272 H   0  0  0  0  0  0  0  0  0  0  0  0
   -7.7685    1.7459   36.3311 H   0  0  0  0  0  0  0  0  0  0  0  0
   -8.1208   -0.4863   36.6991 H   0  0  0  0  0  0  0  0  0  0  0  0
   -9.3880   -0.4140   35.4716 H   0  0  0  0  0  0  0  0  0  0  0  0
   -7.8230   -1.1136   33.7219 H   0  0  0  0  0  0  0  0  0  0  0  0
   -7.3322   -2.0661   35.0966 H   0  0  0  0  0  0  0  0  0  0  0  0
   -0.5434    0.5565   30.0709 H   0  0  0  0  0  0  0  0  0  0  0  0
    1.3677   -1.7778   30.0157 H   0  0  0  0  0  0  0  0  0  0  0  0
    1.8667   -0.0839   30.0829 H   0  0  0  0  0  0  0  0  0  0  0  0
    0.6395   -1.5660   27.6985 H   0  0  0  0  0  0  0  0  0  0  0  0
    0.7732    0.1884   27.7360 H   0  0  0  0  0  0  0  0  0  0  0  0
    5.7238   -0.0067   27.2064 H   0  0  0  0  0  0  0  0  0  0  0  0
    4.7672   -1.7063   25.2248 H   0  0  0  0  0  0  0  0  0  0  0  0
    2.3654   -2.0887   25.8382 H   0  0  0  0  0  0  0  0  0  0  0  0
  1  2  2  0
  2  3  1  0
  3  4  1  0
  4  5  1  0
  5  6  2  0
  6  7  1  0
  7  8  1  0
  8  9  1  0
  9 10  1  0
 10 11  1  0
 11 12  1  0
  7 13  1  0
  2 14  1  0
 14 15  1  0
 15 16  1  0
 16 17  1  0
 17 18  2  0
 18 19  1  0
 19 20  2  0
 20 21  1  0
 13  4  2  0
 21 17  1  0
 12  8  1  0
  3 22  1  0
  3 23  1  0
  5 24  1  0
  6 25  1  0
  8 26  1  0
  9 27  1  0
  9 28  1  0
 10 29  1  0
 10 30  1  0
 11 31  1  0
 11 32  1  0
 12 33  1  0
 12 34  1  0
 14 35  1  0
 15 36  1  0
 15 37  1  0
 16 38  1  0
 16 39  1  0
 19 40  1  0
 20 41  1  0
 21 42  1  0
M  END
>  <Energy>  (54) 
39.533126797042314

>  <compound_id>  (54) 
17997

>  <target_id>  (54) 
1

>  <reference_id>  (54) 
114

>  <inspiration_ids>  (54) 
[7, 114]

>  <energy_score>  (54) 
-10.288431875554807

>  <distance_score>  (54) 
11.109841883063075

>  <path>  (54) 
/opt/xchem-fragalysis-2/maxwin/BulkDock/SCRATCH/511020/C17997-P114/C17997-P114.minimised.mol

>  <scratch_subdir>  (54) 
/opt/xchem-fragalysis-2/maxwin/BulkDock/SCRATCH/511020/C17997-P114

>  <fragmenstein_runtime>  (54) 
16.93142056465149

>  <fragmenstein_outcome>  (54) 
too moved

>  <fragmenstein_mode>  (54) 
expansion

>  <fragmenstein_error>  (54) 


$$$$
C17998-P7
     RDKit          3D

 42 44  0  0  0  0  0  0  0  0999 V2000
    1.8844    0.2883   28.2379 C   0  0  0  0  0  0  0  0  0  0  0  0
    2.2928   -1.1612   28.5222 C   0  0  0  0  0  0  0  0  0  0  0  0
    1.0313   -2.0801   28.6601 C   0  0  0  0  0  0  0  0  0  0  0  0
    0.0000   -1.7246   29.6926 N   0  0  0  0  0  0  0  0  0  0  0  0
   -1.0231   -2.5453   30.3499 C   0  0  0  0  0  0  0  0  0  0  0  0
   -1.2376   -3.7226   30.2839 O   0  0  0  0  0  0  0  0  0  0  0  0
   -1.9961   -1.7512   31.2817 C   0  0  0  0  0  0  0  0  0  0  0  0
   -2.0199   -0.3665   31.6387 C   0  0  0  0  0  0  0  0  0  0  0  0
   -3.0645   -0.1960   32.5252 C   0  0  0  0  0  0  0  0  0  0  0  0
   -3.6472   -1.4204   32.6720 N   0  0  0  0  0  0  0  0  0  0  0  0
   -4.7607   -1.7616   33.5584 C   0  0  0  0  0  0  0  0  0  0  0  0
   -4.5015   -1.4072   35.0377 C   0  0  0  0  0  0  0  0  0  0  0  0
   -5.7387   -0.6485   35.5349 C   0  0  0  0  0  0  0  0  0  0  0  0
   -6.8418   -0.9818   34.5493 C   0  0  0  0  0  0  0  0  0  0  0  0
   -6.0960   -1.0692   33.2229 C   0  0  0  0  0  0  0  0  0  0  0  0
   -3.0357   -2.3675   31.9218 N   0  0  0  0  0  0  0  0  0  0  0  0
    3.3963   -1.5833   27.5036 C   0  0  0  0  0  0  0  0  0  0  0  0
    4.7018   -1.5557   27.7469 N   0  0  0  0  0  0  0  0  0  0  0  0
    5.3464   -1.8591   26.5678 C   0  0  0  0  0  0  0  0  0  0  0  0
    4.4334   -2.0751   25.5744 C   0  0  0  0  0  0  0  0  0  0  0  0
    3.2093   -1.9111   26.1761 N   0  0  0  0  0  0  0  0  0  0  0  0
    2.7634    0.9320   28.1196 H   0  0  0  0  0  0  0  0  0  0  0  0
    1.2871    0.6995   29.0578 H   0  0  0  0  0  0  0  0  0  0  0  0
    1.2911    0.3616   27.3225 H   0  0  0  0  0  0  0  0  0  0  0  0
    2.7864   -1.1653   29.5045 H   0  0  0  0  0  0  0  0  0  0  0  0
    1.3401   -3.1106   28.8695 H   0  0  0  0  0  0  0  0  0  0  0  0
    0.4904   -2.1045   27.7108 H   0  0  0  0  0  0  0  0  0  0  0  0
   -0.1644   -0.7542   29.9124 H   0  0  0  0  0  0  0  0  0  0  0  0
   -1.3405    0.4095   31.3178 H   0  0  0  0  0  0  0  0  0  0  0  0
   -3.4093    0.6691   33.0715 H   0  0  0  0  0  0  0  0  0  0  0  0
   -4.8942   -2.8486   33.4809 H   0  0  0  0  0  0  0  0  0  0  0  0
   -4.3639   -2.3296   35.6108 H   0  0  0  0  0  0  0  0  0  0  0  0
   -3.5981   -0.8089   35.1976 H   0  0  0  0  0  0  0  0  0  0  0  0
   -6.0006   -0.9057   36.5651 H   0  0  0  0  0  0  0  0  0  0  0  0
   -5.5347    0.4290   35.5069 H   0  0  0  0  0  0  0  0  0  0  0  0
   -7.3064   -1.9334   34.8135 H   0  0  0  0  0  0  0  0  0  0  0  0
   -7.6246   -0.2181   34.5309 H   0  0  0  0  0  0  0  0  0  0  0  0
   -5.9285   -0.0559   32.8378 H   0  0  0  0  0  0  0  0  0  0  0  0
   -6.6620   -1.6156   32.4637 H   0  0  0  0  0  0  0  0  0  0  0  0
    6.4256   -1.8937   26.5081 H   0  0  0  0  0  0  0  0  0  0  0  0
    4.5200   -2.3109   24.5237 H   0  0  0  0  0  0  0  0  0  0  0  0
    2.3242   -2.0252   25.6993 H   0  0  0  0  0  0  0  0  0  0  0  0
  1  2  1  0
  2  3  1  0
  3  4  1  0
  4  5  1  0
  5  6  2  0
  5  7  1  0
  7  8  1  0
  8  9  2  0
  9 10  1  0
 10 11  1  0
 11 12  1  0
 12 13  1  0
 13 14  1  0
 14 15  1  0
 10 16  1  0
  2 17  1  0
 17 18  2  0
 18 19  1  0
 19 20  2  0
 20 21  1  0
 16  7  2  0
 21 17  1  0
 15 11  1  0
  1 22  1  0
  1 23  1  0
  1 24  1  0
  2 25  1  0
  3 26  1  0
  3 27  1  0
  4 28  1  0
  8 29  1  0
  9 30  1  0
 11 31  1  0
 12 32  1  0
 12 33  1  0
 13 34  1  0
 13 35  1  0
 14 36  1  0
 14 37  1  0
 15 38  1  0
 15 39  1  0
 19 40  1  0
 20 41  1  0
 21 42  1  0
M  END
>  <Energy>  (55) 
68.638834419366376

>  <compound_id>  (55) 
17998

>  <target_id>  (55) 
1

>  <reference_id>  (55) 
7

>  <inspiration_ids>  (55) 
[7, 114]

>  <energy_score>  (55) 
-1.7073212062111338

>  <distance_score>  (55) 
11.647701919458362

>  <path>  (55) 
/opt/xchem-fragalysis-2/maxwin/BulkDock/SCRATCH/511020/C17998-P7/C17998-P7.minimised.mol

>  <scratch_subdir>  (55) 
/opt/xchem-fragalysis-2/maxwin/BulkDock/SCRATCH/511020/C17998-P7

>  <fragmenstein_runtime>  (55) 
14.44043779373169

>  <fragmenstein_outcome>  (55) 
too moved

>  <fragmenstein_mode>  (55) 
expansion

>  <fragmenstein_error>  (55) 


$$$$
C17998-P114
     RDKit          3D

 42 44  0  0  0  0  0  0  0  0999 V2000
   -3.7703    5.8072   24.5418 C   0  0  0  0  0  0  0  0  0  0  0  0
   -3.6758    4.2816   24.4172 C   0  0  0  0  0  0  0  0  0  0  0  0
   -4.0669    3.6349   25.7824 C   0  0  0  0  0  0  0  0  0  0  0  0
   -5.3923    3.8385   26.4259 N   0  0  0  0  0  0  0  0  0  0  0  0
   -6.7268    3.5840   25.9460 C   0  0  0  0  0  0  0  0  0  0  0  0
   -7.1144    3.2185   24.8721 O   0  0  0  0  0  0  0  0  0  0  0  0
   -7.8187    3.7112   27.0507 C   0  0  0  0  0  0  0  0  0  0  0  0
   -9.0866    3.0393   26.9782 C   0  0  0  0  0  0  0  0  0  0  0  0
   -9.6660    3.1261   28.2215 C   0  0  0  0  0  0  0  0  0  0  0  0
   -8.8202    3.8830   28.9772 N   0  0  0  0  0  0  0  0  0  0  0  0
   -9.0297    4.2948   30.3688 C   0  0  0  0  0  0  0  0  0  0  0  0
  -10.5021    4.5658   30.7598 C   0  0  0  0  0  0  0  0  0  0  0  0
  -10.8943    3.4384   31.7196 C   0  0  0  0  0  0  0  0  0  0  0  0
   -9.6098    3.1926   32.4862 C   0  0  0  0  0  0  0  0  0  0  0  0
   -8.5339    3.2674   31.4054 C   0  0  0  0  0  0  0  0  0  0  0  0
   -7.6922    4.2582   28.2922 N   0  0  0  0  0  0  0  0  0  0  0  0
   -2.2361    3.8736   23.9267 C   0  0  0  0  0  0  0  0  0  0  0  0
   -1.3754    3.0292   24.4815 N   0  0  0  0  0  0  0  0  0  0  0  0
   -0.1682    3.2399   23.8484 C   0  0  0  0  0  0  0  0  0  0  0  0
   -0.3312    4.0369   22.7478 C   0  0  0  0  0  0  0  0  0  0  0  0
   -1.6452    4.4256   22.7976 N   0  0  0  0  0  0  0  0  0  0  0  0
   -3.0430    6.1922   25.2654 H   0  0  0  0  0  0  0  0  0  0  0  0
   -3.5763    6.2985   23.5824 H   0  0  0  0  0  0  0  0  0  0  0  0
   -4.7700    6.1135   24.8672 H   0  0  0  0  0  0  0  0  0  0  0  0
   -4.3891    3.9634   23.6490 H   0  0  0  0  0  0  0  0  0  0  0  0
   -3.9555    2.5482   25.7101 H   0  0  0  0  0  0  0  0  0  0  0  0
   -3.3363    3.9552   26.5365 H   0  0  0  0  0  0  0  0  0  0  0  0
   -5.4336    4.0578   27.4280 H   0  0  0  0  0  0  0  0  0  0  0  0
   -9.4622    2.4894   26.1259 H   0  0  0  0  0  0  0  0  0  0  0  0
  -10.5905    2.7212   28.6068 H   0  0  0  0  0  0  0  0  0  0  0  0
   -8.4694    5.2328   30.4787 H   0  0  0  0  0  0  0  0  0  0  0  0
  -11.1915    4.6449   29.9143 H   0  0  0  0  0  0  0  0  0  0  0  0
  -10.5520    5.5194   31.3018 H   0  0  0  0  0  0  0  0  0  0  0  0
  -11.7231    3.7234   32.3736 H   0  0  0  0  0  0  0  0  0  0  0  0
  -11.1880    2.5464   31.1567 H   0  0  0  0  0  0  0  0  0  0  0  0
   -9.4524    3.9906   33.2219 H   0  0  0  0  0  0  0  0  0  0  0  0
   -9.6063    2.2420   33.0201 H   0  0  0  0  0  0  0  0  0  0  0  0
   -7.5685    3.5615   31.8304 H   0  0  0  0  0  0  0  0  0  0  0  0
   -8.3947    2.2941   30.9382 H   0  0  0  0  0  0  0  0  0  0  0  0
    0.7484    2.8044   24.2235 H   0  0  0  0  0  0  0  0  0  0  0  0
    0.3538    4.3962   21.9923 H   0  0  0  0  0  0  0  0  0  0  0  0
   -2.0936    5.0816   22.1731 H   0  0  0  0  0  0  0  0  0  0  0  0
  1  2  1  0
  2  3  1  0
  3  4  1  0
  4  5  1  0
  5  6  2  0
  5  7  1  0
  7  8  1  0
  8  9  2  0
  9 10  1  0
 10 11  1  0
 11 12  1  0
 12 13  1  0
 13 14  1  0
 14 15  1  0
 10 16  1  0
  2 17  1  0
 17 18  2  0
 18 19  1  0
 19 20  2  0
 20 21  1  0
 16  7  2  0
 21 17  1  0
 15 11  1  0
  1 22  1  0
  1 23  1  0
  1 24  1  0
  2 25  1  0
  3 26  1  0
  3 27  1  0
  4 28  1  0
  8 29  1  0
  9 30  1  0
 11 31  1  0
 12 32  1  0
 12 33  1  0
 13 34  1  0
 13 35  1  0
 14 36  1  0
 14 37  1  0
 15 38  1  0
 15 39  1  0
 19 40  1  0
 20 41  1  0
 21 42  1  0
M  END
>  <Energy>  (56) 
55.013437447141584

>  <compound_id>  (56) 
17998

>  <target_id>  (56) 
1

>  <reference_id>  (56) 
114

>  <inspiration_ids>  (56) 
[7, 114]

>  <energy_score>  (56) 
-15.332718178437517

>  <distance_score>  (56) 
13.241775276649713

>  <path>  (56) 
/opt/xchem-fragalysis-2/maxwin/BulkDock/SCRATCH/511020/C17998-P114/C17998-P114.minimised.mol

>  <scratch_subdir>  (56) 
/opt/xchem-fragalysis-2/maxwin/BulkDock/SCRATCH/511020/C17998-P114

>  <fragmenstein_runtime>  (56) 
13.56748652458191

>  <fragmenstein_outcome>  (56) 
too moved

>  <fragmenstein_mode>  (56) 
expansion

>  <fragmenstein_error>  (56) 


$$$$
C48747-P7
     RDKit          3D

 45 47  0  0  0  0  0  0  0  0999 V2000
    5.3287    1.3198   21.6715 C   0  0  0  0  0  0  0  0  0  0  0  0
    5.9792    0.2889   22.5088 N   0  0  0  0  0  0  0  0  0  0  0  0
    7.1929    0.4394   21.3242 C   0  0  0  0  0  0  0  0  0  0  0  0
    7.2868   -0.0449   19.5284 C   0  0  0  0  0  0  0  0  0  0  0  0
    8.0652    0.2749   17.7845 C   0  0  0  0  0  0  0  0  0  0  0  0
    8.3702    1.5286   17.1343 C   0  0  0  0  0  0  0  0  0  0  0  0
    9.1308    1.2736   16.0247 N   0  0  0  0  0  0  0  0  0  0  0  0
    9.2404   -0.0671   15.9078 C   0  0  0  0  0  0  0  0  0  0  0  0
    8.7115   -0.6538   16.9556 N   0  0  0  0  0  0  0  0  0  0  0  0
    5.9710    0.7416   24.0433 C   0  0  0  0  0  0  0  0  0  0  0  0
    6.7934    1.3725   24.6769 O   0  0  0  0  0  0  0  0  0  0  0  0
    4.5920    0.2984   24.8377 C   0  0  0  0  0  0  0  0  0  0  0  0
    3.8921    0.5381   26.3077 C   0  0  0  0  0  0  0  0  0  0  0  0
    3.6507    1.7765   26.9813 C   0  0  0  0  0  0  0  0  0  0  0  0
    2.6805    1.5458   27.9411 C   0  0  0  0  0  0  0  0  0  0  0  0
    2.3287    0.2237   27.8423 N   0  0  0  0  0  0  0  0  0  0  0  0
    1.3633   -0.4400   28.7335 C   0  0  0  0  0  0  0  0  0  0  0  0
    1.1175   -1.9398   28.5603 C   0  0  0  0  0  0  0  0  0  0  0  0
   -0.1518   -2.2254   29.3911 C   0  0  0  0  0  0  0  0  0  0  0  0
   -0.9419   -0.9186   29.4339 C   0  0  0  0  0  0  0  0  0  0  0  0
   -0.0821    0.1081   28.6871 C   0  0  0  0  0  0  0  0  0  0  0  0
    3.0801   -0.4122   26.8862 N   0  0  0  0  0  0  0  0  0  0  0  0
    5.0509    0.9438   20.6808 H   0  0  0  0  0  0  0  0  0  0  0  0
    4.3781    1.5763   22.1509 H   0  0  0  0  0  0  0  0  0  0  0  0
    5.8525    2.2852   21.6557 H   0  0  0  0  0  0  0  0  0  0  0  0
    7.6172    1.4440   21.4743 H   0  0  0  0  0  0  0  0  0  0  0  0
    7.8972   -0.2190   21.8169 H   0  0  0  0  0  0  0  0  0  0  0  0
    6.3737   -0.6241   19.3463 H   0  0  0  0  0  0  0  0  0  0  0  0
    7.1394    1.0540   19.5185 H   0  0  0  0  0  0  0  0  0  0  0  0
    8.1575    2.5500   17.4218 H   0  0  0  0  0  0  0  0  0  0  0  0
    9.5211    1.9560   15.3891 H   0  0  0  0  0  0  0  0  0  0  0  0
    9.7333   -0.5600   15.0762 H   0  0  0  0  0  0  0  0  0  0  0  0
    4.4842   -0.7758   24.6583 H   0  0  0  0  0  0  0  0  0  0  0  0
    3.9155    0.9944   24.3296 H   0  0  0  0  0  0  0  0  0  0  0  0
    4.0926    2.7323   26.7376 H   0  0  0  0  0  0  0  0  0  0  0  0
    2.2097    2.2065   28.6539 H   0  0  0  0  0  0  0  0  0  0  0  0
    1.7658   -0.2752   29.7435 H   0  0  0  0  0  0  0  0  0  0  0  0
    0.9353   -2.1840   27.5113 H   0  0  0  0  0  0  0  0  0  0  0  0
    1.9662   -2.5435   28.8975 H   0  0  0  0  0  0  0  0  0  0  0  0
    0.1279   -2.5228   30.4084 H   0  0  0  0  0  0  0  0  0  0  0  0
   -0.7336   -3.0440   28.9562 H   0  0  0  0  0  0  0  0  0  0  0  0
   -1.1005   -0.6073   30.4722 H   0  0  0  0  0  0  0  0  0  0  0  0
   -1.9240   -1.0220   28.9626 H   0  0  0  0  0  0  0  0  0  0  0  0
   -0.1621    1.1032   29.1367 H   0  0  0  0  0  0  0  0  0  0  0  0
   -0.4197    0.1906   27.6463 H   0  0  0  0  0  0  0  0  0  0  0  0
  1  2  1  0
  2  3  1  0
  3  4  1  0
  4  5  1  0
  5  6  2  0
  6  7  1  0
  7  8  1  0
  8  9  2  0
  2 10  1  0
 10 11  2  0
 10 12  1  0
 12 13  1  0
 13 14  1  0
 14 15  2  0
 15 16  1  0
 16 17  1  0
 17 18  1  0
 18 19  1  0
 19 20  1  0
 20 21  1  0
 16 22  1  0
  9  5  1  0
 22 13  2  0
 21 17  1  0
  1 23  1  0
  1 24  1  0
  1 25  1  0
  3 26  1  0
  3 27  1  0
  4 28  1  0
  4 29  1  0
  6 30  1  0
  7 31  1  0
  8 32  1  0
 12 33  1  0
 12 34  1  0
 14 35  1  0
 15 36  1  0
 17 37  1  0
 18 38  1  0
 18 39  1  0
 19 40  1  0
 19 41  1  0
 20 42  1  0
 20 43  1  0
 21 44  1  0
 21 45  1  0
M  END
>  <Energy>  (57) 
306.43707289868729

>  <compound_id>  (57) 
48747

>  <target_id>  (57) 
1

>  <reference_id>  (57) 
7

>  <inspiration_ids>  (57) 
[7, 114]

>  <energy_score>  (57) 
237.9247592488603

>  <distance_score>  (57) 
14.318442845753019

>  <path>  (57) 
/opt/xchem-fragalysis-2/maxwin/BulkDock/SCRATCH/511020/C48747-P7/C48747-P7.minimised.mol

>  <scratch_subdir>  (57) 
/opt/xchem-fragalysis-2/maxwin/BulkDock/SCRATCH/511020/C48747-P7

>  <fragmenstein_runtime>  (57) 
8.12488317489624

>  <fragmenstein_outcome>  (57) 
too moved

>  <fragmenstein_mode>  (57) 
expansion

>  <fragmenstein_error>  (57) 


$$$$
C48747-P114
     RDKit          3D

 45 47  0  0  0  0  0  0  0  0999 V2000
    1.8823    0.4941   30.3704 C   0  0  0  0  0  0  0  0  0  0  0  0
    0.7586    0.0389   29.5016 N   0  0  0  0  0  0  0  0  0  0  0  0
    1.9808   -0.4920   28.5929 C   0  0  0  0  0  0  0  0  0  0  0  0
    2.8044    0.4643   27.6078 C   0  0  0  0  0  0  0  0  0  0  0  0
    3.8689   -0.1802   26.7363 C   0  0  0  0  0  0  0  0  0  0  0  0
    3.8717   -1.3960   26.0924 C   0  0  0  0  0  0  0  0  0  0  0  0
    5.0583   -1.4695   25.4131 N   0  0  0  0  0  0  0  0  0  0  0  0
    5.7646   -0.3436   25.7019 C   0  0  0  0  0  0  0  0  0  0  0  0
    5.0558    0.4854   26.4419 N   0  0  0  0  0  0  0  0  0  0  0  0
   -0.2374   -0.7055   30.3074 C   0  0  0  0  0  0  0  0  0  0  0  0
   -0.3210   -1.8845   30.5513 O   0  0  0  0  0  0  0  0  0  0  0  0
   -1.3412    0.2817   30.8947 C   0  0  0  0  0  0  0  0  0  0  0  0
   -2.4745   -0.2937   31.8081 C   0  0  0  0  0  0  0  0  0  0  0  0
   -2.9201   -1.6363   31.9432 C   0  0  0  0  0  0  0  0  0  0  0  0
   -4.0128   -1.6100   32.7774 C   0  0  0  0  0  0  0  0  0  0  0  0
   -4.1619   -0.3166   33.1704 N   0  0  0  0  0  0  0  0  0  0  0  0
   -5.1693    0.1882   34.0946 C   0  0  0  0  0  0  0  0  0  0  0  0
   -6.6301   -0.0265   33.6496 C   0  0  0  0  0  0  0  0  0  0  0  0
   -7.4174   -0.4335   34.9078 C   0  0  0  0  0  0  0  0  0  0  0  0
   -6.4938   -0.1321   36.0726 C   0  0  0  0  0  0  0  0  0  0  0  0
   -5.1147   -0.4271   35.5011 C   0  0  0  0  0  0  0  0  0  0  0  0
   -3.2661    0.5174   32.5645 N   0  0  0  0  0  0  0  0  0  0  0  0
    1.4063    0.9721   31.2389 H   0  0  0  0  0  0  0  0  0  0  0  0
    2.4813    1.3082   29.9570 H   0  0  0  0  0  0  0  0  0  0  0  0
    2.4613   -0.3156   30.8378 H   0  0  0  0  0  0  0  0  0  0  0  0
    2.6203   -1.2233   29.1150 H   0  0  0  0  0  0  0  0  0  0  0  0
    1.4232   -1.1556   27.9123 H   0  0  0  0  0  0  0  0  0  0  0  0
    2.0854    0.9781   26.9599 H   0  0  0  0  0  0  0  0  0  0  0  0
    3.3097    1.2505   28.1768 H   0  0  0  0  0  0  0  0  0  0  0  0
    3.1570   -2.2057   26.0559 H   0  0  0  0  0  0  0  0  0  0  0  0
    5.4035   -2.2975   24.9432 H   0  0  0  0  0  0  0  0  0  0  0  0
    6.7735   -0.1829   25.3500 H   0  0  0  0  0  0  0  0  0  0  0  0
   -0.8268    1.0598   31.4692 H   0  0  0  0  0  0  0  0  0  0  0  0
   -1.8315    0.7546   30.0348 H   0  0  0  0  0  0  0  0  0  0  0  0
   -2.5032   -2.5055   31.4556 H   0  0  0  0  0  0  0  0  0  0  0  0
   -4.6692   -2.3895   33.1300 H   0  0  0  0  0  0  0  0  0  0  0  0
   -4.9927    1.2692   34.1824 H   0  0  0  0  0  0  0  0  0  0  0  0
   -6.7390   -0.7913   32.8728 H   0  0  0  0  0  0  0  0  0  0  0  0
   -7.0299    0.9063   33.2348 H   0  0  0  0  0  0  0  0  0  0  0  0
   -8.3613    0.1083   35.0061 H   0  0  0  0  0  0  0  0  0  0  0  0
   -7.6441   -1.5043   34.8697 H   0  0  0  0  0  0  0  0  0  0  0  0
   -6.5668    0.9271   36.3471 H   0  0  0  0  0  0  0  0  0  0  0  0
   -6.7232   -0.7250   36.9611 H   0  0  0  0  0  0  0  0  0  0  0  0
   -4.3169    0.0142   36.1070 H   0  0  0  0  0  0  0  0  0  0  0  0
   -4.9420   -1.5086   35.4620 H   0  0  0  0  0  0  0  0  0  0  0  0
  1  2  1  0
  2  3  1  0
  3  4  1  0
  4  5  1  0
  5  6  2  0
  6  7  1  0
  7  8  1  0
  8  9  2  0
  2 10  1  0
 10 11  2  0
 10 12  1  0
 12 13  1  0
 13 14  1  0
 14 15  2  0
 15 16  1  0
 16 17  1  0
 17 18  1  0
 18 19  1  0
 19 20  1  0
 20 21  1  0
 16 22  1  0
  9  5  1  0
 22 13  2  0
 21 17  1  0
  1 23  1  0
  1 24  1  0
  1 25  1  0
  3 26  1  0
  3 27  1  0
  4 28  1  0
  4 29  1  0
  6 30  1  0
  7 31  1  0
  8 32  1  0
 12 33  1  0
 12 34  1  0
 14 35  1  0
 15 36  1  0
 17 37  1  0
 18 38  1  0
 18 39  1  0
 19 40  1  0
 19 41  1  0
 20 42  1  0
 20 43  1  0
 21 44  1  0
 21 45  1  0
M  END
>  <Energy>  (58) 
117.63898157627295

>  <compound_id>  (58) 
48747

>  <target_id>  (58) 
1

>  <reference_id>  (58) 
114

>  <inspiration_ids>  (58) 
[7, 114]

>  <energy_score>  (58) 
49.1266679264441

>  <distance_score>  (58) 
11.357479804342136

>  <path>  (58) 
/opt/xchem-fragalysis-2/maxwin/BulkDock/SCRATCH/511020/C48747-P114/C48747-P114.minimised.mol

>  <scratch_subdir>  (58) 
/opt/xchem-fragalysis-2/maxwin/BulkDock/SCRATCH/511020/C48747-P114

>  <fragmenstein_runtime>  (58) 
9.906733274459839

>  <fragmenstein_outcome>  (58) 
too moved

>  <fragmenstein_mode>  (58) 
expansion

>  <fragmenstein_error>  (58) 


$$$$
C48748-P7
     RDKit          3D

 40 42  0  0  0  0  0  0  0  0999 V2000
  -13.0481   -4.5808   31.0943 O   0  0  0  0  0  0  0  0  0  0  0  0
  -12.0622   -3.8782   31.1397 C   0  0  0  0  0  0  0  0  0  0  0  0
  -11.4490   -3.1198   32.2997 N   0  0  0  0  0  0  0  0  0  0  0  0
  -11.8243   -3.0759   33.8599 C   0  0  0  0  0  0  0  0  0  0  0  0
  -10.7479   -2.6644   34.8477 C   0  0  0  0  0  0  0  0  0  0  0  0
  -11.0672   -2.6269   36.1467 N   0  0  0  0  0  0  0  0  0  0  0  0
  -12.3948   -2.6478   36.0315 N   0  0  0  0  0  0  0  0  0  0  0  0
  -13.2575   -2.3741   37.1643 C   0  0  0  0  0  0  0  0  0  0  0  0
  -13.0747   -3.3207   38.3538 C   0  0  0  0  0  0  0  0  0  0  0  0
  -13.4754   -2.4876   39.5580 C   0  0  0  0  0  0  0  0  0  0  0  0
  -12.8711   -1.1340   39.2354 C   0  0  0  0  0  0  0  0  0  0  0  0
  -13.1165   -0.9555   37.7400 C   0  0  0  0  0  0  0  0  0  0  0  0
  -12.6526   -2.3315   34.6989 C   0  0  0  0  0  0  0  0  0  0  0  0
  -11.1672   -3.8403   29.4589 C   0  0  0  0  0  0  0  0  0  0  0  0
  -11.4509   -5.1023   28.8185 O   0  0  0  0  0  0  0  0  0  0  0  0
   -9.5852   -3.3321   28.8393 C   0  0  0  0  0  0  0  0  0  0  0  0
   -8.6788   -3.7778   27.6428 C   0  0  0  0  0  0  0  0  0  0  0  0
   -8.5309   -4.9285   26.8930 C   0  0  0  0  0  0  0  0  0  0  0  0
   -7.4483   -4.7363   26.0551 N   0  0  0  0  0  0  0  0  0  0  0  0
   -6.9381   -3.4994   26.3120 C   0  0  0  0  0  0  0  0  0  0  0  0
   -7.6323   -2.9035   27.2584 N   0  0  0  0  0  0  0  0  0  0  0  0
  -10.6428   -2.7366   32.0249 H   0  0  0  0  0  0  0  0  0  0  0  0
   -9.7383   -2.3559   34.5963 H   0  0  0  0  0  0  0  0  0  0  0  0
  -14.2825   -2.5116   36.8026 H   0  0  0  0  0  0  0  0  0  0  0  0
  -12.0328   -3.6438   38.4595 H   0  0  0  0  0  0  0  0  0  0  0  0
  -13.7099   -4.2062   38.2621 H   0  0  0  0  0  0  0  0  0  0  0  0
  -13.0964   -2.9018   40.4964 H   0  0  0  0  0  0  0  0  0  0  0  0
  -14.5670   -2.4134   39.6276 H   0  0  0  0  0  0  0  0  0  0  0  0
  -13.3138   -0.3274   39.8269 H   0  0  0  0  0  0  0  0  0  0  0  0
  -11.7928   -1.1470   39.4351 H   0  0  0  0  0  0  0  0  0  0  0  0
  -14.0532   -0.4059   37.5884 H   0  0  0  0  0  0  0  0  0  0  0  0
  -12.3187   -0.3647   37.2777 H   0  0  0  0  0  0  0  0  0  0  0  0
  -12.9587   -1.3182   34.5731 H   0  0  0  0  0  0  0  0  0  0  0  0
  -11.8293   -3.1269   28.9425 H   0  0  0  0  0  0  0  0  0  0  0  0
  -12.3591   -5.3337   29.1007 H   0  0  0  0  0  0  0  0  0  0  0  0
   -8.8861   -3.3427   29.6681 H   0  0  0  0  0  0  0  0  0  0  0  0
   -9.7674   -2.2733   28.5945 H   0  0  0  0  0  0  0  0  0  0  0  0
   -9.0860   -5.8564   26.8899 H   0  0  0  0  0  0  0  0  0  0  0  0
   -7.0992   -5.3977   25.3758 H   0  0  0  0  0  0  0  0  0  0  0  0
   -6.0813   -3.0921   25.7931 H   0  0  0  0  0  0  0  0  0  0  0  0
  1  2  2  0
  2  3  1  0
  3  4  1  0
  4  5  1  0
  5  6  2  0
  6  7  1  0
  7  8  1  0
  8  9  1  0
  9 10  1  0
 10 11  1  0
 11 12  1  0
  7 13  1  0
  2 14  1  0
 14 15  1  0
 14 16  1  0
 16 17  1  0
 17 18  2  0
 18 19  1  0
 19 20  1  0
 20 21  2  0
 13  4  2  0
 21 17  1  0
 12  8  1  0
  3 22  1  0
  5 23  1  0
  8 24  1  0
  9 25  1  0
  9 26  1  0
 10 27  1  0
 10 28  1  0
 11 29  1  0
 11 30  1  0
 12 31  1  0
 12 32  1  0
 13 33  1  0
 14 34  1  0
 15 35  1  0
 16 36  1  0
 16 37  1  0
 18 38  1  0
 19 39  1  0
 20 40  1  0
M  END
>  <Energy>  (59) 
222.91674285383655

>  <compound_id>  (59) 
48748

>  <target_id>  (59) 
1

>  <reference_id>  (59) 
7

>  <inspiration_ids>  (59) 
[7, 114]

>  <energy_score>  (59) 
153.8936508337551

>  <distance_score>  (59) 
14.84271040396122

>  <path>  (59) 
/opt/xchem-fragalysis-2/maxwin/BulkDock/SCRATCH/511020/C48748-P7/C48748-P7.minimised.mol

>  <scratch_subdir>  (59) 
/opt/xchem-fragalysis-2/maxwin/BulkDock/SCRATCH/511020/C48748-P7

>  <fragmenstein_runtime>  (59) 
5.8959338665008545

>  <fragmenstein_outcome>  (59) 
too moved

>  <fragmenstein_mode>  (59) 
expansion

>  <fragmenstein_error>  (59) 


$$$$
C48748-P114
     RDKit          3D

 40 42  0  0  0  0  0  0  0  0999 V2000
    1.8731   -4.4062   27.6226 O   0  0  0  0  0  0  0  0  0  0  0  0
    2.0233   -3.2424   27.8993 C   0  0  0  0  0  0  0  0  0  0  0  0
    1.1949   -2.3345   28.7199 N   0  0  0  0  0  0  0  0  0  0  0  0
   -0.0573   -2.5348   29.3421 C   0  0  0  0  0  0  0  0  0  0  0  0
   -0.8962   -3.6819   29.3256 C   0  0  0  0  0  0  0  0  0  0  0  0
   -2.0360   -3.5479   30.0209 N   0  0  0  0  0  0  0  0  0  0  0  0
   -1.9467   -2.3158   30.5578 N   0  0  0  0  0  0  0  0  0  0  0  0
   -2.9999   -1.8285   31.4490 C   0  0  0  0  0  0  0  0  0  0  0  0
   -4.2918   -1.4056   30.7347 C   0  0  0  0  0  0  0  0  0  0  0  0
   -5.4252   -1.5399   31.7715 C   0  0  0  0  0  0  0  0  0  0  0  0
   -4.8044   -2.1807   33.0080 C   0  0  0  0  0  0  0  0  0  0  0  0
   -3.5204   -2.8279   32.4997 C   0  0  0  0  0  0  0  0  0  0  0  0
   -0.7873   -1.6641   30.1495 C   0  0  0  0  0  0  0  0  0  0  0  0
    3.4096   -2.5255   27.3988 C   0  0  0  0  0  0  0  0  0  0  0  0
    3.4146   -1.1292   27.7281 O   0  0  0  0  0  0  0  0  0  0  0  0
    3.7460   -2.7421   25.8737 C   0  0  0  0  0  0  0  0  0  0  0  0
    5.1614   -2.8927   25.3495 C   0  0  0  0  0  0  0  0  0  0  0  0
    5.5159   -3.4051   24.1074 C   0  0  0  0  0  0  0  0  0  0  0  0
    6.8777   -3.3603   24.0509 N   0  0  0  0  0  0  0  0  0  0  0  0
    7.3047   -2.8117   25.2252 C   0  0  0  0  0  0  0  0  0  0  0  0
    6.2970   -2.5007   26.0181 N   0  0  0  0  0  0  0  0  0  0  0  0
    1.6699   -1.4377   28.8071 H   0  0  0  0  0  0  0  0  0  0  0  0
   -0.7069   -4.6195   28.8182 H   0  0  0  0  0  0  0  0  0  0  0  0
   -2.5795   -0.9584   31.9714 H   0  0  0  0  0  0  0  0  0  0  0  0
   -4.5045   -2.0546   29.8764 H   0  0  0  0  0  0  0  0  0  0  0  0
   -4.2189   -0.3818   30.3521 H   0  0  0  0  0  0  0  0  0  0  0  0
   -5.8620   -0.5652   32.0134 H   0  0  0  0  0  0  0  0  0  0  0  0
   -6.2264   -2.1637   31.3631 H   0  0  0  0  0  0  0  0  0  0  0  0
   -5.4695   -2.9014   33.4891 H   0  0  0  0  0  0  0  0  0  0  0  0
   -4.5623   -1.4048   33.7440 H   0  0  0  0  0  0  0  0  0  0  0  0
   -2.7958   -2.9918   33.3034 H   0  0  0  0  0  0  0  0  0  0  0  0
   -3.7488   -3.8014   32.0493 H   0  0  0  0  0  0  0  0  0  0  0  0
   -0.5824   -0.6574   30.4824 H   0  0  0  0  0  0  0  0  0  0  0  0
    4.1947   -2.9926   28.0064 H   0  0  0  0  0  0  0  0  0  0  0  0
    4.2273   -0.7802   27.3096 H   0  0  0  0  0  0  0  0  0  0  0  0
    3.2435   -3.6609   25.5578 H   0  0  0  0  0  0  0  0  0  0  0  0
    3.3244   -1.8952   25.3214 H   0  0  0  0  0  0  0  0  0  0  0  0
    4.9141   -3.7909   23.2961 H   0  0  0  0  0  0  0  0  0  0  0  0
    7.4585   -3.7024   23.2992 H   0  0  0  0  0  0  0  0  0  0  0  0
    8.3521   -2.6634   25.4524 H   0  0  0  0  0  0  0  0  0  0  0  0
  1  2  2  0
  2  3  1  0
  3  4  1  0
  4  5  1  0
  5  6  2  0
  6  7  1  0
  7  8  1  0
  8  9  1  0
  9 10  1  0
 10 11  1  0
 11 12  1  0
  7 13  1  0
  2 14  1  0
 14 15  1  0
 14 16  1  0
 16 17  1  0
 17 18  2  0
 18 19  1  0
 19 20  1  0
 20 21  2  0
 13  4  2  0
 21 17  1  0
 12  8  1  0
  3 22  1  0
  5 23  1  0
  8 24  1  0
  9 25  1  0
  9 26  1  0
 10 27  1  0
 10 28  1  0
 11 29  1  0
 11 30  1  0
 12 31  1  0
 12 32  1  0
 13 33  1  0
 14 34  1  0
 15 35  1  0
 16 36  1  0
 16 37  1  0
 18 38  1  0
 19 39  1  0
 20 40  1  0
M  END
>  <Energy>  (60) 
51.3713111464238

>  <compound_id>  (60) 
48748

>  <target_id>  (60) 
1

>  <reference_id>  (60) 
114

>  <inspiration_ids>  (60) 
[7, 114]

>  <energy_score>  (60) 
-17.651780873656094

>  <distance_score>  (60) 
12.482892680778914

>  <path>  (60) 
/opt/xchem-fragalysis-2/maxwin/BulkDock/SCRATCH/511020/C48748-P114/C48748-P114.minimised.mol

>  <scratch_subdir>  (60) 
/opt/xchem-fragalysis-2/maxwin/BulkDock/SCRATCH/511020/C48748-P114

>  <fragmenstein_runtime>  (60) 
6.191350221633911

>  <fragmenstein_outcome>  (60) 
too moved

>  <fragmenstein_mode>  (60) 
expansion

>  <fragmenstein_error>  (60) 


$$$$
C48749-P7
     RDKit          3D

 41 43  0  0  0  0  0  0  0  0999 V2000
   -8.7223   -1.9957   26.8898 C   0  0  0  0  0  0  0  0  0  0  0  0
   -8.4685   -3.3506   27.4787 N   0  0  0  0  0  0  0  0  0  0  0  0
   -9.3636   -3.8145   26.2057 C   0  0  0  0  0  0  0  0  0  0  0  0
   -8.9239   -3.7133   24.6765 C   0  0  0  0  0  0  0  0  0  0  0  0
   -8.9506   -2.6569   23.7782 C   0  0  0  0  0  0  0  0  0  0  0  0
   -8.5453   -3.1514   22.5598 N   0  0  0  0  0  0  0  0  0  0  0  0
   -8.3143   -4.4792   22.7160 C   0  0  0  0  0  0  0  0  0  0  0  0
   -8.5215   -4.8459   23.9624 N   0  0  0  0  0  0  0  0  0  0  0  0
   -8.7858   -3.3385   28.9494 C   0  0  0  0  0  0  0  0  0  0  0  0
   -9.8083   -3.5893   29.4769 O   0  0  0  0  0  0  0  0  0  0  0  0
   -7.4193   -2.7907   29.5652 N   0  0  0  0  0  0  0  0  0  0  0  0
   -7.0415   -2.2765   31.1521 C   0  0  0  0  0  0  0  0  0  0  0  0
   -7.2185   -0.8592   31.5847 C   0  0  0  0  0  0  0  0  0  0  0  0
   -7.1123   -0.7089   32.9542 C   0  0  0  0  0  0  0  0  0  0  0  0
   -6.5035   -1.7810   33.3842 N   0  0  0  0  0  0  0  0  0  0  0  0
   -6.0218   -2.3364   32.2092 N   0  0  0  0  0  0  0  0  0  0  0  0
   -4.6254   -2.7185   32.3418 C   0  0  0  0  0  0  0  0  0  0  0  0
   -3.6397   -1.5317   32.4667 C   0  0  0  0  0  0  0  0  0  0  0  0
   -3.6346   -1.1082   33.9397 C   0  0  0  0  0  0  0  0  0  0  0  0
   -4.0565   -2.3291   34.7385 C   0  0  0  0  0  0  0  0  0  0  0  0
   -4.3043   -3.4198   33.6966 C   0  0  0  0  0  0  0  0  0  0  0  0
   -8.3655   -1.2759   27.6395 H   0  0  0  0  0  0  0  0  0  0  0  0
   -8.1240   -1.7515   26.0123 H   0  0  0  0  0  0  0  0  0  0  0  0
   -9.7806   -1.7034   26.8133 H   0  0  0  0  0  0  0  0  0  0  0  0
  -10.4146   -3.5076   26.3324 H   0  0  0  0  0  0  0  0  0  0  0  0
   -9.4195   -4.8986   26.3923 H   0  0  0  0  0  0  0  0  0  0  0  0
   -9.2652   -1.6280   23.8837 H   0  0  0  0  0  0  0  0  0  0  0  0
   -8.5103   -2.6457   21.6844 H   0  0  0  0  0  0  0  0  0  0  0  0
   -8.0126   -5.1266   21.9026 H   0  0  0  0  0  0  0  0  0  0  0  0
   -6.7118   -2.7674   28.8470 H   0  0  0  0  0  0  0  0  0  0  0  0
   -7.6050   -0.0672   30.9667 H   0  0  0  0  0  0  0  0  0  0  0  0
   -7.3984    0.0958   33.6152 H   0  0  0  0  0  0  0  0  0  0  0  0
   -4.3906   -3.2895   31.4553 H   0  0  0  0  0  0  0  0  0  0  0  0
   -3.8513   -0.6731   31.8330 H   0  0  0  0  0  0  0  0  0  0  0  0
   -2.6339   -1.8830   32.2001 H   0  0  0  0  0  0  0  0  0  0  0  0
   -4.3261   -0.2759   34.1103 H   0  0  0  0  0  0  0  0  0  0  0  0
   -2.6406   -0.7576   34.2376 H   0  0  0  0  0  0  0  0  0  0  0  0
   -4.9468   -2.1020   35.3279 H   0  0  0  0  0  0  0  0  0  0  0  0
   -3.2787   -2.6349   35.4466 H   0  0  0  0  0  0  0  0  0  0  0  0
   -3.3496   -3.9519   33.6108 H   0  0  0  0  0  0  0  0  0  0  0  0
   -5.0548   -4.1380   34.0310 H   0  0  0  0  0  0  0  0  0  0  0  0
  1  2  1  0
  2  3  1  0
  3  4  1  0
  4  5  2  0
  5  6  1  0
  6  7  1  0
  7  8  2  0
  2  9  1  0
  9 10  2  0
  9 11  1  0
 11 12  1  0
 12 13  2  0
 13 14  1  0
 14 15  2  0
 15 16  1  0
 16 17  1  0
 17 18  1  0
 18 19  1  0
 19 20  1  0
 20 21  1  0
  8  4  1  0
 16 12  1  0
 21 17  1  0
  1 22  1  0
  1 23  1  0
  1 24  1  0
  3 25  1  0
  3 26  1  0
  5 27  1  0
  6 28  1  0
  7 29  1  0
 11 30  1  0
 13 31  1  0
 14 32  1  0
 17 33  1  0
 18 34  1  0
 18 35  1  0
 19 36  1  0
 19 37  1  0
 20 38  1  0
 20 39  1  0
 21 40  1  0
 21 41  1  0
M  END
>  <Energy>  (61) 
200.99764197968071

>  <compound_id>  (61) 
48749

>  <target_id>  (61) 
1

>  <reference_id>  (61) 
7

>  <inspiration_ids>  (61) 
[7, 114]

>  <energy_score>  (61) 
156.24386229912318

>  <distance_score>  (61) 
15.72052192673494

>  <path>  (61) 
/opt/xchem-fragalysis-2/maxwin/BulkDock/SCRATCH/511020/C48749-P7/C48749-P7.minimised.mol

>  <scratch_subdir>  (61) 
/opt/xchem-fragalysis-2/maxwin/BulkDock/SCRATCH/511020/C48749-P7

>  <fragmenstein_runtime>  (61) 
10.806814432144165

>  <fragmenstein_outcome>  (61) 
too moved

>  <fragmenstein_mode>  (61) 
expansion

>  <fragmenstein_error>  (61) 


$$$$
C48749-P114
     RDKit          3D

 41 43  0  0  0  0  0  0  0  0999 V2000
   -1.3072    1.2712   28.2983 C   0  0  0  0  0  0  0  0  0  0  0  0
   -0.3399    0.4932   29.1509 N   0  0  0  0  0  0  0  0  0  0  0  0
    0.6044    0.7454   27.9159 C   0  0  0  0  0  0  0  0  0  0  0  0
    1.9091   -0.0331   27.6647 C   0  0  0  0  0  0  0  0  0  0  0  0
    2.1518   -1.3884   27.5437 C   0  0  0  0  0  0  0  0  0  0  0  0
    3.3080   -1.5100   26.8023 N   0  0  0  0  0  0  0  0  0  0  0  0
    3.7713   -0.2544   26.5436 C   0  0  0  0  0  0  0  0  0  0  0  0
    2.9692    0.6540   27.0541 N   0  0  0  0  0  0  0  0  0  0  0  0
   -0.3026    1.0644   30.5316 C   0  0  0  0  0  0  0  0  0  0  0  0
    0.3916    1.9010   30.9871 O   0  0  0  0  0  0  0  0  0  0  0  0
   -1.4827    0.3326   31.1437 N   0  0  0  0  0  0  0  0  0  0  0  0
   -2.1254    0.5138   32.3681 C   0  0  0  0  0  0  0  0  0  0  0  0
   -1.7911    1.4698   33.3145 C   0  0  0  0  0  0  0  0  0  0  0  0
   -2.8780    1.5654   34.1925 C   0  0  0  0  0  0  0  0  0  0  0  0
   -3.8495    0.7254   33.8588 N   0  0  0  0  0  0  0  0  0  0  0  0
   -3.3017   -0.0404   32.8746 N   0  0  0  0  0  0  0  0  0  0  0  0
   -3.8948   -1.3612   32.6709 C   0  0  0  0  0  0  0  0  0  0  0  0
   -3.3655   -2.3274   33.7414 C   0  0  0  0  0  0  0  0  0  0  0  0
   -4.5607   -2.7169   34.6119 C   0  0  0  0  0  0  0  0  0  0  0  0
   -5.6550   -1.7102   34.3142 C   0  0  0  0  0  0  0  0  0  0  0  0
   -5.4331   -1.3979   32.8455 C   0  0  0  0  0  0  0  0  0  0  0  0
   -1.6986    0.6930   27.4486 H   0  0  0  0  0  0  0  0  0  0  0  0
   -2.2005    1.4215   28.9195 H   0  0  0  0  0  0  0  0  0  0  0  0
   -1.0070    2.3032   28.0608 H   0  0  0  0  0  0  0  0  0  0  0  0
    0.9471    1.7910   27.9969 H   0  0  0  0  0  0  0  0  0  0  0  0
    0.1103    0.5709   26.9490 H   0  0  0  0  0  0  0  0  0  0  0  0
    1.5487   -2.2528   27.7789 H   0  0  0  0  0  0  0  0  0  0  0  0
    3.6892   -2.3690   26.4316 H   0  0  0  0  0  0  0  0  0  0  0  0
    4.6636   -0.0663   25.9619 H   0  0  0  0  0  0  0  0  0  0  0  0
   -1.8001   -0.3837   30.5038 H   0  0  0  0  0  0  0  0  0  0  0  0
   -0.9077    2.0946   33.3012 H   0  0  0  0  0  0  0  0  0  0  0  0
   -3.0146    2.2378   35.0294 H   0  0  0  0  0  0  0  0  0  0  0  0
   -3.5970   -1.6842   31.6696 H   0  0  0  0  0  0  0  0  0  0  0  0
   -2.9197   -3.2148   33.2861 H   0  0  0  0  0  0  0  0  0  0  0  0
   -2.5798   -1.8787   34.3616 H   0  0  0  0  0  0  0  0  0  0  0  0
   -4.2706   -2.7036   35.6651 H   0  0  0  0  0  0  0  0  0  0  0  0
   -4.8946   -3.7272   34.3530 H   0  0  0  0  0  0  0  0  0  0  0  0
   -6.6590   -2.0859   34.5068 H   0  0  0  0  0  0  0  0  0  0  0  0
   -5.5301   -0.8201   34.9386 H   0  0  0  0  0  0  0  0  0  0  0  0
   -5.8444   -2.2085   32.2328 H   0  0  0  0  0  0  0  0  0  0  0  0
   -5.9372   -0.4694   32.5628 H   0  0  0  0  0  0  0  0  0  0  0  0
  1  2  1  0
  2  3  1  0
  3  4  1  0
  4  5  2  0
  5  6  1  0
  6  7  1  0
  7  8  2  0
  2  9  1  0
  9 10  2  0
  9 11  1  0
 11 12  1  0
 12 13  2  0
 13 14  1  0
 14 15  2  0
 15 16  1  0
 16 17  1  0
 17 18  1  0
 18 19  1  0
 19 20  1  0
 20 21  1  0
  8  4  1  0
 16 12  1  0
 21 17  1  0
  1 22  1  0
  1 23  1  0
  1 24  1  0
  3 25  1  0
  3 26  1  0
  5 27  1  0
  6 28  1  0
  7 29  1  0
 11 30  1  0
 13 31  1  0
 14 32  1  0
 17 33  1  0
 18 34  1  0
 18 35  1  0
 19 36  1  0
 19 37  1  0
 20 38  1  0
 20 39  1  0
 21 40  1  0
 21 41  1  0
M  END
>  <Energy>  (62) 
89.378835262711206

>  <compound_id>  (62) 
48749

>  <target_id>  (62) 
1

>  <reference_id>  (62) 
114

>  <inspiration_ids>  (62) 
[7, 114]

>  <energy_score>  (62) 
44.625055582153436

>  <distance_score>  (62) 
12.53005529169971

>  <path>  (62) 
/opt/xchem-fragalysis-2/maxwin/BulkDock/SCRATCH/511020/C48749-P114/C48749-P114.minimised.mol

>  <scratch_subdir>  (62) 
/opt/xchem-fragalysis-2/maxwin/BulkDock/SCRATCH/511020/C48749-P114

>  <fragmenstein_runtime>  (62) 
11.307043313980103

>  <fragmenstein_outcome>  (62) 
too moved

>  <fragmenstein_mode>  (62) 
expansion

>  <fragmenstein_error>  (62) 


$$$$
C17999-P7
     RDKit          3D

 40 42  0  0  0  0  0  0  0  0999 V2000
   -2.2512    0.4656   27.5892 C   0  0  0  0  0  0  0  0  0  0  0  0
   -1.5096   -0.4033   28.6130 C   0  0  0  0  0  0  0  0  0  0  0  0
   -1.9327   -0.0449   30.0579 N   0  0  0  0  0  0  0  0  0  0  0  0
   -3.6622   -0.0954   30.3303 S   0  0  0  0  0  0  0  0  0  0  0  0
   -4.1101   -1.3844   29.8416 O   0  0  0  0  0  0  0  0  0  0  0  0
   -4.1772    1.1374   29.7748 O   0  0  0  0  0  0  0  0  0  0  0  0
   -4.2315   -0.0415   31.9682 C   0  0  0  0  0  0  0  0  0  0  0  0
   -4.2233    1.0841   32.8100 C   0  0  0  0  0  0  0  0  0  0  0  0
   -4.8919    0.8854   33.9544 N   0  0  0  0  0  0  0  0  0  0  0  0
   -5.3915   -0.3598   33.8292 N   0  0  0  0  0  0  0  0  0  0  0  0
   -6.2836   -0.9092   34.8353 C   0  0  0  0  0  0  0  0  0  0  0  0
   -6.1366   -0.3784   36.2682 C   0  0  0  0  0  0  0  0  0  0  0  0
   -7.4908   -0.6397   36.9465 C   0  0  0  0  0  0  0  0  0  0  0  0
   -8.4699   -0.9939   35.8340 C   0  0  0  0  0  0  0  0  0  0  0  0
   -7.7512   -0.6361   34.5408 C   0  0  0  0  0  0  0  0  0  0  0  0
   -5.0045   -0.9654   32.6572 C   0  0  0  0  0  0  0  0  0  0  0  0
    0.0173   -0.2688   28.3104 C   0  0  0  0  0  0  0  0  0  0  0  0
    0.7158    0.8470   28.1369 N   0  0  0  0  0  0  0  0  0  0  0  0
    1.9662    0.4750   27.6795 C   0  0  0  0  0  0  0  0  0  0  0  0
    2.0407   -0.8863   27.5421 C   0  0  0  0  0  0  0  0  0  0  0  0
    0.8112   -1.3481   27.9421 N   0  0  0  0  0  0  0  0  0  0  0  0
   -1.8424    0.3354   26.5836 H   0  0  0  0  0  0  0  0  0  0  0  0
   -3.3118    0.2047   27.5295 H   0  0  0  0  0  0  0  0  0  0  0  0
   -2.1720    1.5297   27.8387 H   0  0  0  0  0  0  0  0  0  0  0  0
   -1.7748   -1.4568   28.4562 H   0  0  0  0  0  0  0  0  0  0  0  0
   -1.5871    0.8960   30.2681 H   0  0  0  0  0  0  0  0  0  0  0  0
   -3.7829    2.0563   32.6273 H   0  0  0  0  0  0  0  0  0  0  0  0
   -6.1026   -1.9893   34.8359 H   0  0  0  0  0  0  0  0  0  0  0  0
   -5.9365    0.6994   36.2866 H   0  0  0  0  0  0  0  0  0  0  0  0
   -5.3136   -0.8670   36.8000 H   0  0  0  0  0  0  0  0  0  0  0  0
   -7.4216   -1.4485   37.6803 H   0  0  0  0  0  0  0  0  0  0  0  0
   -7.8184    0.2559   37.4861 H   0  0  0  0  0  0  0  0  0  0  0  0
   -9.4201   -0.4630   35.9429 H   0  0  0  0  0  0  0  0  0  0  0  0
   -8.6887   -2.0645   35.8463 H   0  0  0  0  0  0  0  0  0  0  0  0
   -7.9111    0.4219   34.2977 H   0  0  0  0  0  0  0  0  0  0  0  0
   -8.0988   -1.2325   33.6965 H   0  0  0  0  0  0  0  0  0  0  0  0
   -5.3538   -1.9507   32.3814 H   0  0  0  0  0  0  0  0  0  0  0  0
    2.7271    1.2123   27.4585 H   0  0  0  0  0  0  0  0  0  0  0  0
    2.8147   -1.5490   27.1807 H   0  0  0  0  0  0  0  0  0  0  0  0
    0.5130   -2.3124   27.9097 H   0  0  0  0  0  0  0  0  0  0  0  0
  1  2  1  0
  2  3  1  0
  3  4  1  0
  4  5  2  0
  4  6  2  0
  4  7  1  0
  7  8  1  0
  8  9  2  0
  9 10  1  0
 10 11  1  0
 11 12  1  0
 12 13  1  0
 13 14  1  0
 14 15  1  0
 10 16  1  0
  2 17  1  0
 17 18  2  0
 18 19  1  0
 19 20  2  0
 20 21  1  0
 16  7  2  0
 21 17  1  0
 15 11  1  0
  1 22  1  0
  1 23  1  0
  1 24  1  0
  2 25  1  0
  3 26  1  0
  8 27  1  0
 11 28  1  0
 12 29  1  0
 12 30  1  0
 13 31  1  0
 13 32  1  0
 14 33  1  0
 14 34  1  0
 15 35  1  0
 15 36  1  0
 16 37  1  0
 19 38  1  0
 20 39  1  0
 21 40  1  0
M  END
>  <Energy>  (63) 
-39.972235172655807

>  <compound_id>  (63) 
17999

>  <target_id>  (63) 
1

>  <reference_id>  (63) 
7

>  <inspiration_ids>  (63) 
[7, 114]

>  <energy_score>  (63) 
-30.295986339134885

>  <distance_score>  (63) 
12.13698263363907

>  <path>  (63) 
/opt/xchem-fragalysis-2/maxwin/BulkDock/SCRATCH/511020/C17999-P7/C17999-P7.minimised.mol

>  <scratch_subdir>  (63) 
/opt/xchem-fragalysis-2/maxwin/BulkDock/SCRATCH/511020/C17999-P7

>  <fragmenstein_runtime>  (63) 
6.1160924434661865

>  <fragmenstein_outcome>  (63) 
too moved

>  <fragmenstein_mode>  (63) 
expansion

>  <fragmenstein_error>  (63) 


$$$$
C17999-P114
     RDKit          3D

 40 42  0  0  0  0  0  0  0  0999 V2000
   -0.5825   -2.6138   29.2520 C   0  0  0  0  0  0  0  0  0  0  0  0
    0.0340   -1.2504   29.5531 C   0  0  0  0  0  0  0  0  0  0  0  0
   -1.1218   -0.2782   29.7715 N   0  0  0  0  0  0  0  0  0  0  0  0
   -1.6055    0.0424   31.4063 S   0  0  0  0  0  0  0  0  0  0  0  0
   -1.7375    1.4816   31.4783 O   0  0  0  0  0  0  0  0  0  0  0  0
   -0.7123   -0.6807   32.2858 O   0  0  0  0  0  0  0  0  0  0  0  0
   -3.1678   -0.4977   31.9207 C   0  0  0  0  0  0  0  0  0  0  0  0
   -4.2232   -1.0242   31.1710 C   0  0  0  0  0  0  0  0  0  0  0  0
   -5.2823   -1.3484   31.9302 N   0  0  0  0  0  0  0  0  0  0  0  0
   -4.9328   -0.9532   33.1785 N   0  0  0  0  0  0  0  0  0  0  0  0
   -5.8435   -1.1712   34.2931 C   0  0  0  0  0  0  0  0  0  0  0  0
   -5.5787   -0.3478   35.5639 C   0  0  0  0  0  0  0  0  0  0  0  0
   -6.9259   -0.2409   36.2962 C   0  0  0  0  0  0  0  0  0  0  0  0
   -7.9794   -0.7664   35.3333 C   0  0  0  0  0  0  0  0  0  0  0  0
   -7.2848   -0.7933   33.9808 C   0  0  0  0  0  0  0  0  0  0  0  0
   -3.6549   -0.4693   33.2205 C   0  0  0  0  0  0  0  0  0  0  0  0
    1.0353   -0.7948   28.4335 C   0  0  0  0  0  0  0  0  0  0  0  0
    1.3892    0.4468   28.1277 N   0  0  0  0  0  0  0  0  0  0  0  0
    2.4850    0.3551   27.2885 C   0  0  0  0  0  0  0  0  0  0  0  0
    2.7822   -0.9554   27.0204 C   0  0  0  0  0  0  0  0  0  0  0  0
    1.8405   -1.6733   27.7123 N   0  0  0  0  0  0  0  0  0  0  0  0
   -1.2763   -2.9123   30.0457 H   0  0  0  0  0  0  0  0  0  0  0  0
   -1.1448   -2.5958   28.3120 H   0  0  0  0  0  0  0  0  0  0  0  0
    0.1820   -3.3935   29.1739 H   0  0  0  0  0  0  0  0  0  0  0  0
    0.6469   -1.3129   30.4580 H   0  0  0  0  0  0  0  0  0  0  0  0
   -0.8428    0.6302   29.3762 H   0  0  0  0  0  0  0  0  0  0  0  0
   -4.2715   -1.2043   30.1051 H   0  0  0  0  0  0  0  0  0  0  0  0
   -5.7757   -2.2409   34.5242 H   0  0  0  0  0  0  0  0  0  0  0  0
   -4.8135   -0.8124   36.1948 H   0  0  0  0  0  0  0  0  0  0  0  0
   -5.2282    0.6622   35.3168 H   0  0  0  0  0  0  0  0  0  0  0  0
   -7.1238    0.8059   36.5537 H   0  0  0  0  0  0  0  0  0  0  0  0
   -6.9262   -0.8049   37.2339 H   0  0  0  0  0  0  0  0  0  0  0  0
   -8.8769   -0.1418   35.3368 H   0  0  0  0  0  0  0  0  0  0  0  0
   -8.2839   -1.7773   35.6089 H   0  0  0  0  0  0  0  0  0  0  0  0
   -7.7472   -1.4992   33.2887 H   0  0  0  0  0  0  0  0  0  0  0  0
   -7.3175    0.2009   33.5202 H   0  0  0  0  0  0  0  0  0  0  0  0
   -3.1856   -0.1433   34.1383 H   0  0  0  0  0  0  0  0  0  0  0  0
    2.9778    1.2413   26.9108 H   0  0  0  0  0  0  0  0  0  0  0  0
    3.5184   -1.4279   26.3852 H   0  0  0  0  0  0  0  0  0  0  0  0
    1.7706   -2.6804   27.7152 H   0  0  0  0  0  0  0  0  0  0  0  0
  1  2  1  0
  2  3  1  0
  3  4  1  0
  4  5  2  0
  4  6  2  0
  4  7  1  0
  7  8  1  0
  8  9  2  0
  9 10  1  0
 10 11  1  0
 11 12  1  0
 12 13  1  0
 13 14  1  0
 14 15  1  0
 10 16  1  0
  2 17  1  0
 17 18  2  0
 18 19  1  0
 19 20  2  0
 20 21  1  0
 16  7  2  0
 21 17  1  0
 15 11  1  0
  1 22  1  0
  1 23  1  0
  1 24  1  0
  2 25  1  0
  3 26  1  0
  8 27  1  0
 11 28  1  0
 12 29  1  0
 12 30  1  0
 13 31  1  0
 13 32  1  0
 14 33  1  0
 14 34  1  0
 15 35  1  0
 15 36  1  0
 16 37  1  0
 19 38  1  0
 20 39  1  0
 21 40  1  0
M  END
>  <Energy>  (64) 
-40.982860332681682

>  <compound_id>  (64) 
17999

>  <target_id>  (64) 
1

>  <reference_id>  (64) 
114

>  <inspiration_ids>  (64) 
[7, 114]

>  <energy_score>  (64) 
-31.306611499159004

>  <distance_score>  (64) 
12.140944000843309

>  <path>  (64) 
/opt/xchem-fragalysis-2/maxwin/BulkDock/SCRATCH/511020/C17999-P114/C17999-P114.minimised.mol

>  <scratch_subdir>  (64) 
/opt/xchem-fragalysis-2/maxwin/BulkDock/SCRATCH/511020/C17999-P114

>  <fragmenstein_runtime>  (64) 
10.604361534118652

>  <fragmenstein_outcome>  (64) 
too moved

>  <fragmenstein_mode>  (64) 
expansion

>  <fragmenstein_error>  (64) 


$$$$
C18000-P7
     RDKit          3D

 36 38  0  0  0  0  0  0  0  0999 V2000
  -10.0264   -5.5043   24.1241 O   0  0  0  0  0  0  0  0  0  0  0  0
   -9.3575   -4.5454   23.8770 C   0  0  0  0  0  0  0  0  0  0  0  0
   -8.4625   -4.2754   22.7504 N   0  0  0  0  0  0  0  0  0  0  0  0
   -8.1852   -5.0569   21.5273 C   0  0  0  0  0  0  0  0  0  0  0  0
   -6.8227   -4.9713   20.8211 C   0  0  0  0  0  0  0  0  0  0  0  0
   -6.4924   -4.1883   19.8039 N   0  0  0  0  0  0  0  0  0  0  0  0
   -5.3176   -4.6790   19.2705 C   0  0  0  0  0  0  0  0  0  0  0  0
   -4.9227   -5.7987   19.9530 C   0  0  0  0  0  0  0  0  0  0  0  0
   -5.8489   -5.9499   20.9512 N   0  0  0  0  0  0  0  0  0  0  0  0
   -9.4729   -3.4228   24.8796 C   0  0  0  0  0  0  0  0  0  0  0  0
   -9.0591   -2.0933   24.8045 C   0  0  0  0  0  0  0  0  0  0  0  0
   -9.3482   -1.4931   26.0426 C   0  0  0  0  0  0  0  0  0  0  0  0
   -9.9359   -2.3370   26.8756 N   0  0  0  0  0  0  0  0  0  0  0  0
  -10.0915   -3.4789   26.1568 N   0  0  0  0  0  0  0  0  0  0  0  0
  -10.9241   -4.5207   26.7716 C   0  0  0  0  0  0  0  0  0  0  0  0
  -12.4238   -4.2176   26.6096 C   0  0  0  0  0  0  0  0  0  0  0  0
  -12.8673   -3.6385   27.9536 C   0  0  0  0  0  0  0  0  0  0  0  0
  -12.0915   -4.4580   28.9620 C   0  0  0  0  0  0  0  0  0  0  0  0
  -10.7314   -4.6947   28.3009 C   0  0  0  0  0  0  0  0  0  0  0  0
   -8.1217   -3.3289   22.8190 H   0  0  0  0  0  0  0  0  0  0  0  0
   -8.3989   -6.1048   21.7692 H   0  0  0  0  0  0  0  0  0  0  0  0
   -8.9497   -4.7457   20.8055 H   0  0  0  0  0  0  0  0  0  0  0  0
   -4.8543   -4.2079   18.4132 H   0  0  0  0  0  0  0  0  0  0  0  0
   -4.1149   -6.5021   19.8220 H   0  0  0  0  0  0  0  0  0  0  0  0
   -5.8856   -6.7219   21.6020 H   0  0  0  0  0  0  0  0  0  0  0  0
   -8.5855   -1.6044   23.9659 H   0  0  0  0  0  0  0  0  0  0  0  0
   -9.1527   -0.4784   26.3668 H   0  0  0  0  0  0  0  0  0  0  0  0
  -10.6689   -5.4642   26.2870 H   0  0  0  0  0  0  0  0  0  0  0  0
  -12.6487   -3.5391   25.7804 H   0  0  0  0  0  0  0  0  0  0  0  0
  -12.9639   -5.1555   26.4289 H   0  0  0  0  0  0  0  0  0  0  0  0
  -12.5881   -2.5812   28.0234 H   0  0  0  0  0  0  0  0  0  0  0  0
  -13.9487   -3.7146   28.0977 H   0  0  0  0  0  0  0  0  0  0  0  0
  -12.5929   -5.4186   29.1294 H   0  0  0  0  0  0  0  0  0  0  0  0
  -12.0088   -3.9487   29.9257 H   0  0  0  0  0  0  0  0  0  0  0  0
   -9.9815   -4.0112   28.7094 H   0  0  0  0  0  0  0  0  0  0  0  0
  -10.3869   -5.7122   28.5171 H   0  0  0  0  0  0  0  0  0  0  0  0
  1  2  2  0
  2  3  1  0
  3  4  1  0
  4  5  1  0
  5  6  2  0
  6  7  1  0
  7  8  2  0
  8  9  1  0
  2 10  1  0
 10 11  2  0
 11 12  1  0
 12 13  2  0
 13 14  1  0
 14 15  1  0
 15 16  1  0
 16 17  1  0
 17 18  1  0
 18 19  1  0
  9  5  1  0
 14 10  1  0
 19 15  1  0
  3 20  1  0
  4 21  1  0
  4 22  1  0
  7 23  1  0
  8 24  1  0
  9 25  1  0
 11 26  1  0
 12 27  1  0
 15 28  1  0
 16 29  1  0
 16 30  1  0
 17 31  1  0
 17 32  1  0
 18 33  1  0
 18 34  1  0
 19 35  1  0
 19 36  1  0
M  END
>  <Energy>  (65) 
-8.8215250352857115

>  <compound_id>  (65) 
18000

>  <target_id>  (65) 
1

>  <reference_id>  (65) 
7

>  <inspiration_ids>  (65) 
[7, 114]

>  <energy_score>  (65) 
-1.874016583320099

>  <distance_score>  (65) 
14.752464108160249

>  <path>  (65) 
/opt/xchem-fragalysis-2/maxwin/BulkDock/SCRATCH/511020/C18000-P7/C18000-P7.minimised.mol

>  <scratch_subdir>  (65) 
/opt/xchem-fragalysis-2/maxwin/BulkDock/SCRATCH/511020/C18000-P7

>  <fragmenstein_runtime>  (65) 
11.554713249206543

>  <fragmenstein_outcome>  (65) 
too moved

>  <fragmenstein_mode>  (65) 
expansion

>  <fragmenstein_error>  (65) 


$$$$
C18000-P114
     RDKit          3D

 36 38  0  0  0  0  0  0  0  0999 V2000
   -1.9156   -2.1868   30.0182 O   0  0  0  0  0  0  0  0  0  0  0  0
   -0.8716   -1.8181   30.4697 C   0  0  0  0  0  0  0  0  0  0  0  0
    0.4250   -1.6144   29.8233 N   0  0  0  0  0  0  0  0  0  0  0  0
    0.8217   -1.7062   28.4050 C   0  0  0  0  0  0  0  0  0  0  0  0
    2.2838   -1.4768   28.0262 C   0  0  0  0  0  0  0  0  0  0  0  0
    3.2696   -0.9651   28.7447 N   0  0  0  0  0  0  0  0  0  0  0  0
    4.3740   -0.9027   27.9115 C   0  0  0  0  0  0  0  0  0  0  0  0
    4.0678   -1.3631   26.6604 C   0  0  0  0  0  0  0  0  0  0  0  0
    2.7616   -1.7570   26.7500 N   0  0  0  0  0  0  0  0  0  0  0  0
   -0.8855   -1.5910   31.9507 C   0  0  0  0  0  0  0  0  0  0  0  0
    0.1717   -1.4982   32.8448 C   0  0  0  0  0  0  0  0  0  0  0  0
   -0.3835   -1.4483   34.1339 C   0  0  0  0  0  0  0  0  0  0  0  0
   -1.7066   -1.4915   34.1135 N   0  0  0  0  0  0  0  0  0  0  0  0
   -2.0182   -1.5017   32.7949 N   0  0  0  0  0  0  0  0  0  0  0  0
   -3.4361   -1.3196   32.4825 C   0  0  0  0  0  0  0  0  0  0  0  0
   -4.1005   -0.1714   33.2833 C   0  0  0  0  0  0  0  0  0  0  0  0
   -4.9638   -0.8519   34.3443 C   0  0  0  0  0  0  0  0  0  0  0  0
   -5.4774   -2.0834   33.6313 C   0  0  0  0  0  0  0  0  0  0  0  0
   -4.3020   -2.5593   32.7807 C   0  0  0  0  0  0  0  0  0  0  0  0
    1.0696   -1.2156   30.4924 H   0  0  0  0  0  0  0  0  0  0  0  0
    0.2035   -0.9762   27.8706 H   0  0  0  0  0  0  0  0  0  0  0  0
    0.5110   -2.7009   28.0675 H   0  0  0  0  0  0  0  0  0  0  0  0
    5.3224   -0.5212   28.2653 H   0  0  0  0  0  0  0  0  0  0  0  0
    4.6397   -1.4711   25.7491 H   0  0  0  0  0  0  0  0  0  0  0  0
    2.2288   -2.1555   25.9849 H   0  0  0  0  0  0  0  0  0  0  0  0
    1.2269   -1.5271   32.6113 H   0  0  0  0  0  0  0  0  0  0  0  0
    0.1296   -1.4030   35.0861 H   0  0  0  0  0  0  0  0  0  0  0  0
   -3.4582   -1.0566   31.4317 H   0  0  0  0  0  0  0  0  0  0  0  0
   -3.3902    0.5355   33.7239 H   0  0  0  0  0  0  0  0  0  0  0  0
   -4.7552    0.4063   32.6208 H   0  0  0  0  0  0  0  0  0  0  0  0
   -4.3526   -1.1376   35.2078 H   0  0  0  0  0  0  0  0  0  0  0  0
   -5.7727   -0.2059   34.6974 H   0  0  0  0  0  0  0  0  0  0  0  0
   -5.7924   -2.8524   34.3363 H   0  0  0  0  0  0  0  0  0  0  0  0
   -6.3252   -1.8220   32.9879 H   0  0  0  0  0  0  0  0  0  0  0  0
   -4.6645   -3.0136   31.8539 H   0  0  0  0  0  0  0  0  0  0  0  0
   -3.7346   -3.3273   33.3195 H   0  0  0  0  0  0  0  0  0  0  0  0
  1  2  2  0
  2  3  1  0
  3  4  1  0
  4  5  1  0
  5  6  2  0
  6  7  1  0
  7  8  2  0
  8  9  1  0
  2 10  1  0
 10 11  2  0
 11 12  1  0
 12 13  2  0
 13 14  1  0
 14 15  1  0
 15 16  1  0
 16 17  1  0
 17 18  1  0
 18 19  1  0
  9  5  1  0
 14 10  1  0
 19 15  1  0
  3 20  1  0
  4 21  1  0
  4 22  1  0
  7 23  1  0
  8 24  1  0
  9 25  1  0
 11 26  1  0
 12 27  1  0
 15 28  1  0
 16 29  1  0
 16 30  1  0
 17 31  1  0
 17 32  1  0
 18 33  1  0
 18 34  1  0
 19 35  1  0
 19 36  1  0
M  END
>  <Energy>  (66) 
-13.726605129102412

>  <compound_id>  (66) 
18000

>  <target_id>  (66) 
1

>  <reference_id>  (66) 
114

>  <inspiration_ids>  (66) 
[7, 114]

>  <energy_score>  (66) 
-6.779096677134817

>  <distance_score>  (66) 
12.910006222259158

>  <path>  (66) 
/opt/xchem-fragalysis-2/maxwin/BulkDock/SCRATCH/511020/C18000-P114/C18000-P114.minimised.mol

>  <scratch_subdir>  (66) 
/opt/xchem-fragalysis-2/maxwin/BulkDock/SCRATCH/511020/C18000-P114

>  <fragmenstein_runtime>  (66) 
9.700984001159668

>  <fragmenstein_outcome>  (66) 
too moved

>  <fragmenstein_mode>  (66) 
expansion

>  <fragmenstein_error>  (66) 


$$$$
C18001-P7
     RDKit          3D

 38 41  0  0  0  0  0  0  0  0999 V2000
    3.0288   -1.6078   26.7803 C   0  0  0  0  0  0  0  0  0  0  0  0
    3.4515   -0.3181   26.6139 C   0  0  0  0  0  0  0  0  0  0  0  0
    2.7178    0.3933   27.5199 N   0  0  0  0  0  0  0  0  0  0  0  0
    1.8972   -0.4686   28.2522 C   0  0  0  0  0  0  0  0  0  0  0  0
    1.0161   -0.0247   29.3981 C   0  0  0  0  0  0  0  0  0  0  0  0
    1.3411    1.1563   30.0679 C   0  0  0  0  0  0  0  0  0  0  0  0
    0.6523    1.6983   31.1013 N   0  0  0  0  0  0  0  0  0  0  0  0
   -0.4392    1.0152   31.5343 C   0  0  0  0  0  0  0  0  0  0  0  0
   -0.9066   -0.1890   31.0078 C   0  0  0  0  0  0  0  0  0  0  0  0
   -2.1318   -0.7887   31.6503 C   0  0  0  0  0  0  0  0  0  0  0  0
   -2.6762   -2.0999   31.5369 C   0  0  0  0  0  0  0  0  0  0  0  0
   -3.7947   -2.1436   32.3487 C   0  0  0  0  0  0  0  0  0  0  0  0
   -3.8985   -0.9069   32.9094 N   0  0  0  0  0  0  0  0  0  0  0  0
   -4.9081   -0.4132   33.8305 C   0  0  0  0  0  0  0  0  0  0  0  0
   -5.2312   -1.3129   35.0315 C   0  0  0  0  0  0  0  0  0  0  0  0
   -6.6932   -1.0073   35.4095 C   0  0  0  0  0  0  0  0  0  0  0  0
   -7.1412    0.0878   34.4603 C   0  0  0  0  0  0  0  0  0  0  0  0
   -6.2866   -0.1391   33.2226 C   0  0  0  0  0  0  0  0  0  0  0  0
   -2.8947   -0.0848   32.5235 N   0  0  0  0  0  0  0  0  0  0  0  0
   -0.1387   -0.7104   29.9106 C   0  0  0  0  0  0  0  0  0  0  0  0
    2.0806   -1.6943   27.7873 N   0  0  0  0  0  0  0  0  0  0  0  0
    3.3348   -2.4671   26.2026 H   0  0  0  0  0  0  0  0  0  0  0  0
    4.1461    0.1309   25.9181 H   0  0  0  0  0  0  0  0  0  0  0  0
    2.7573    1.3934   27.6381 H   0  0  0  0  0  0  0  0  0  0  0  0
    2.2202    1.7373   29.8034 H   0  0  0  0  0  0  0  0  0  0  0  0
   -0.9500    1.4944   32.3676 H   0  0  0  0  0  0  0  0  0  0  0  0
   -2.2950   -2.9094   30.9301 H   0  0  0  0  0  0  0  0  0  0  0  0
   -4.5034   -2.9335   32.5485 H   0  0  0  0  0  0  0  0  0  0  0  0
   -4.5164    0.5357   34.2264 H   0  0  0  0  0  0  0  0  0  0  0  0
   -4.5546   -1.1038   35.8676 H   0  0  0  0  0  0  0  0  0  0  0  0
   -5.1254   -2.3757   34.7916 H   0  0  0  0  0  0  0  0  0  0  0  0
   -6.7912   -0.7046   36.4565 H   0  0  0  0  0  0  0  0  0  0  0  0
   -7.3177   -1.8932   35.2572 H   0  0  0  0  0  0  0  0  0  0  0  0
   -6.9246    1.0723   34.8924 H   0  0  0  0  0  0  0  0  0  0  0  0
   -8.2057    0.0453   34.2487 H   0  0  0  0  0  0  0  0  0  0  0  0
   -6.6517   -1.0009   32.6510 H   0  0  0  0  0  0  0  0  0  0  0  0
   -6.2826    0.7341   32.5631 H   0  0  0  0  0  0  0  0  0  0  0  0
   -0.4340   -1.6455   29.4381 H   0  0  0  0  0  0  0  0  0  0  0  0
  1  2  2  0
  2  3  1  0
  3  4  1  0
  4  5  1  0
  5  6  2  0
  6  7  1  0
  7  8  2  0
  8  9  1  0
  9 10  1  0
 10 11  1  0
 11 12  2  0
 12 13  1  0
 13 14  1  0
 14 15  1  0
 15 16  1  0
 16 17  1  0
 17 18  1  0
 13 19  1  0
  9 20  2  0
  4 21  2  0
 21  1  1  0
 20  5  1  0
 19 10  2  0
 18 14  1  0
  1 22  1  0
  2 23  1  0
  3 24  1  0
  6 25  1  0
  8 26  1  0
 11 27  1  0
 12 28  1  0
 14 29  1  0
 15 30  1  0
 15 31  1  0
 16 32  1  0
 16 33  1  0
 17 34  1  0
 17 35  1  0
 18 36  1  0
 18 37  1  0
 20 38  1  0
M  END
>  <Energy>  (67) 
56.015339164606608

>  <compound_id>  (67) 
18001

>  <target_id>  (67) 
1

>  <reference_id>  (67) 
7

>  <inspiration_ids>  (67) 
[7, 114]

>  <energy_score>  (67) 
-14.511488409794168

>  <distance_score>  (67) 
12.265774448447335

>  <path>  (67) 
/opt/xchem-fragalysis-2/maxwin/BulkDock/SCRATCH/511020/C18001-P7/C18001-P7.minimised.mol

>  <scratch_subdir>  (67) 
/opt/xchem-fragalysis-2/maxwin/BulkDock/SCRATCH/511020/C18001-P7

>  <fragmenstein_runtime>  (67) 
7.137364864349365

>  <fragmenstein_outcome>  (67) 
too moved

>  <fragmenstein_mode>  (67) 
expansion

>  <fragmenstein_error>  (67) 


$$$$
C18001-P114
     RDKit          3D

 38 41  0  0  0  0  0  0  0  0999 V2000
    3.9830   -0.2738   26.6947 C   0  0  0  0  0  0  0  0  0  0  0  0
    3.3816   -1.4730   26.4438 C   0  0  0  0  0  0  0  0  0  0  0  0
    2.2790   -1.5050   27.2651 N   0  0  0  0  0  0  0  0  0  0  0  0
    2.2436   -0.3481   28.0210 C   0  0  0  0  0  0  0  0  0  0  0  0
    1.2536    0.0347   29.0974 C   0  0  0  0  0  0  0  0  0  0  0  0
    1.4539    1.2879   29.6845 C   0  0  0  0  0  0  0  0  0  0  0  0
    0.7099    1.8281   30.6835 N   0  0  0  0  0  0  0  0  0  0  0  0
   -0.3177    1.0828   31.1573 C   0  0  0  0  0  0  0  0  0  0  0  0
   -0.6758   -0.1802   30.6931 C   0  0  0  0  0  0  0  0  0  0  0  0
   -1.8433   -0.8558   31.3653 C   0  0  0  0  0  0  0  0  0  0  0  0
   -2.2419   -2.2169   31.2890 C   0  0  0  0  0  0  0  0  0  0  0  0
   -3.3233   -2.3651   32.1306 C   0  0  0  0  0  0  0  0  0  0  0  0
   -3.5701   -1.1317   32.6591 N   0  0  0  0  0  0  0  0  0  0  0  0
   -4.5435   -0.8105   33.6993 C   0  0  0  0  0  0  0  0  0  0  0  0
   -5.7085   -1.8018   33.8344 C   0  0  0  0  0  0  0  0  0  0  0  0
   -6.7743   -1.0198   34.5910 C   0  0  0  0  0  0  0  0  0  0  0  0
   -6.7221    0.3339   33.9133 C   0  0  0  0  0  0  0  0  0  0  0  0
   -5.2461    0.5559   33.5720 C   0  0  0  0  0  0  0  0  0  0  0  0
   -2.6753   -0.2073   32.2225 N   0  0  0  0  0  0  0  0  0  0  0  0
    0.1471   -0.7056   29.6310 C   0  0  0  0  0  0  0  0  0  0  0  0
    3.2738    0.4139   27.6489 N   0  0  0  0  0  0  0  0  0  0  0  0
    4.8742    0.1330   26.2416 H   0  0  0  0  0  0  0  0  0  0  0  0
    3.6088   -2.2664   25.7461 H   0  0  0  0  0  0  0  0  0  0  0  0
    1.5858   -2.2370   27.2702 H   0  0  0  0  0  0  0  0  0  0  0  0
    2.2706    1.9298   29.3547 H   0  0  0  0  0  0  0  0  0  0  0  0
   -0.8657    1.5585   31.9684 H   0  0  0  0  0  0  0  0  0  0  0  0
   -1.7725   -3.0006   30.7124 H   0  0  0  0  0  0  0  0  0  0  0  0
   -3.9041   -3.2367   32.3937 H   0  0  0  0  0  0  0  0  0  0  0  0
   -3.9663   -0.8183   34.6344 H   0  0  0  0  0  0  0  0  0  0  0  0
   -5.4128   -2.7125   34.3634 H   0  0  0  0  0  0  0  0  0  0  0  0
   -6.0921   -2.0892   32.8475 H   0  0  0  0  0  0  0  0  0  0  0  0
   -7.7639   -1.4785   34.5325 H   0  0  0  0  0  0  0  0  0  0  0  0
   -6.4987   -0.9155   35.6460 H   0  0  0  0  0  0  0  0  0  0  0  0
   -7.2935    0.3112   32.9798 H   0  0  0  0  0  0  0  0  0  0  0  0
   -7.1298    1.1330   34.5391 H   0  0  0  0  0  0  0  0  0  0  0  0
   -5.1509    0.9981   32.5748 H   0  0  0  0  0  0  0  0  0  0  0  0
   -4.7975    1.2653   34.2778 H   0  0  0  0  0  0  0  0  0  0  0  0
   -0.0759   -1.6893   29.2286 H   0  0  0  0  0  0  0  0  0  0  0  0
  1  2  2  0
  2  3  1  0
  3  4  1  0
  4  5  1  0
  5  6  2  0
  6  7  1  0
  7  8  2  0
  8  9  1  0
  9 10  1  0
 10 11  1  0
 11 12  2  0
 12 13  1  0
 13 14  1  0
 14 15  1  0
 15 16  1  0
 16 17  1  0
 17 18  1  0
 13 19  1  0
  9 20  2  0
  4 21  2  0
 21  1  1  0
 20  5  1  0
 19 10  2  0
 18 14  1  0
  1 22  1  0
  2 23  1  0
  3 24  1  0
  6 25  1  0
  8 26  1  0
 11 27  1  0
 12 28  1  0
 14 29  1  0
 15 30  1  0
 15 31  1  0
 16 32  1  0
 16 33  1  0
 17 34  1  0
 17 35  1  0
 18 36  1  0
 18 37  1  0
 20 38  1  0
M  END
>  <Energy>  (68) 
56.835985923491435

>  <compound_id>  (68) 
18001

>  <target_id>  (68) 
1

>  <reference_id>  (68) 
114

>  <inspiration_ids>  (68) 
[7, 114]

>  <energy_score>  (68) 
-13.690841650909675

>  <distance_score>  (68) 
12.269084215898879

>  <path>  (68) 
/opt/xchem-fragalysis-2/maxwin/BulkDock/SCRATCH/511020/C18001-P114/C18001-P114.minimised.mol

>  <scratch_subdir>  (68) 
/opt/xchem-fragalysis-2/maxwin/BulkDock/SCRATCH/511020/C18001-P114

>  <fragmenstein_runtime>  (68) 
5.783549547195435

>  <fragmenstein_outcome>  (68) 
too moved

>  <fragmenstein_mode>  (68) 
expansion

>  <fragmenstein_error>  (68) 


$$$$
C48750-P7
     RDKit          3D

 40 42  0  0  0  0  0  0  0  0999 V2000
    2.9398    0.5263   28.6574 C   0  0  0  0  0  0  0  0  0  0  0  0
    2.6036   -0.8998   28.5456 N   0  0  0  0  0  0  0  0  0  0  0  0
    2.6579   -1.4413   27.1311 C   0  0  0  0  0  0  0  0  0  0  0  0
    3.9239   -1.1657   26.2999 C   0  0  0  0  0  0  0  0  0  0  0  0
    4.9817   -2.0155   26.0107 C   0  0  0  0  0  0  0  0  0  0  0  0
    5.7410   -1.3823   25.0624 N   0  0  0  0  0  0  0  0  0  0  0  0
    5.1582   -0.1748   24.8149 C   0  0  0  0  0  0  0  0  0  0  0  0
    4.0746   -0.0053   25.5432 N   0  0  0  0  0  0  0  0  0  0  0  0
    1.4432   -1.5175   29.6819 S   0  0  0  0  0  0  0  0  0  0  0  0
    1.0683   -2.8616   29.2983 O   0  0  0  0  0  0  0  0  0  0  0  0
    1.9767   -1.2507   31.0031 O   0  0  0  0  0  0  0  0  0  0  0  0
   -0.1351   -0.6267   29.7433 C   0  0  0  0  0  0  0  0  0  0  0  0
   -0.6947    0.2381   28.8165 C   0  0  0  0  0  0  0  0  0  0  0  0
   -1.8857    0.7041   29.3747 C   0  0  0  0  0  0  0  0  0  0  0  0
   -2.1329    0.1716   30.5641 N   0  0  0  0  0  0  0  0  0  0  0  0
   -1.0820   -0.6681   30.7794 N   0  0  0  0  0  0  0  0  0  0  0  0
   -1.1680   -1.4975   31.9858 C   0  0  0  0  0  0  0  0  0  0  0  0
   -2.2883   -2.5357   31.8619 C   0  0  0  0  0  0  0  0  0  0  0  0
   -3.4864   -1.9475   32.6140 C   0  0  0  0  0  0  0  0  0  0  0  0
   -2.8483   -1.2906   33.8188 C   0  0  0  0  0  0  0  0  0  0  0  0
   -1.5313   -0.7166   33.2806 C   0  0  0  0  0  0  0  0  0  0  0  0
    4.0038    0.6765   28.4521 H   0  0  0  0  0  0  0  0  0  0  0  0
    2.7580    0.9036   29.6678 H   0  0  0  0  0  0  0  0  0  0  0  0
    2.3490    1.1210   27.9548 H   0  0  0  0  0  0  0  0  0  0  0  0
    2.5177   -2.5259   27.1718 H   0  0  0  0  0  0  0  0  0  0  0  0
    1.8113   -1.0014   26.6094 H   0  0  0  0  0  0  0  0  0  0  0  0
    5.2195   -3.0102   26.3573 H   0  0  0  0  0  0  0  0  0  0  0  0
    6.5777   -1.7446   24.6285 H   0  0  0  0  0  0  0  0  0  0  0  0
    5.5603    0.5348   24.1054 H   0  0  0  0  0  0  0  0  0  0  0  0
   -0.2639    0.5110   27.8638 H   0  0  0  0  0  0  0  0  0  0  0  0
   -2.5712    1.4246   28.9526 H   0  0  0  0  0  0  0  0  0  0  0  0
   -0.2018   -1.9960   32.0982 H   0  0  0  0  0  0  0  0  0  0  0  0
   -2.5353   -2.7761   30.8255 H   0  0  0  0  0  0  0  0  0  0  0  0
   -1.9522   -3.4546   32.3537 H   0  0  0  0  0  0  0  0  0  0  0  0
   -4.2425   -2.6886   32.8778 H   0  0  0  0  0  0  0  0  0  0  0  0
   -3.9770   -1.1839   32.0098 H   0  0  0  0  0  0  0  0  0  0  0  0
   -3.4844   -0.5167   34.2584 H   0  0  0  0  0  0  0  0  0  0  0  0
   -2.6341   -2.0310   34.5967 H   0  0  0  0  0  0  0  0  0  0  0  0
   -0.7414   -0.8380   34.0309 H   0  0  0  0  0  0  0  0  0  0  0  0
   -1.6277    0.3604   33.1026 H   0  0  0  0  0  0  0  0  0  0  0  0
  1  2  1  0
  2  3  1  0
  3  4  1  0
  4  5  2  0
  5  6  1  0
  6  7  1  0
  7  8  2  0
  2  9  1  0
  9 10  2  0
  9 11  2  0
  9 12  1  0
 12 13  2  0
 13 14  1  0
 14 15  2  0
 15 16  1  0
 16 17  1  0
 17 18  1  0
 18 19  1  0
 19 20  1  0
 20 21  1  0
  8  4  1  0
 16 12  1  0
 21 17  1  0
  1 22  1  0
  1 23  1  0
  1 24  1  0
  3 25  1  0
  3 26  1  0
  5 27  1  0
  6 28  1  0
  7 29  1  0
 13 30  1  0
 14 31  1  0
 17 32  1  0
 18 33  1  0
 18 34  1  0
 19 35  1  0
 19 36  1  0
 20 37  1  0
 20 38  1  0
 21 39  1  0
 21 40  1  0
M  END
>  <Energy>  (69) 
-58.79507912984667

>  <compound_id>  (69) 
48750

>  <target_id>  (69) 
1

>  <reference_id>  (69) 
7

>  <inspiration_ids>  (69) 
[7, 114]

>  <energy_score>  (69) 
-33.63185482222315

>  <distance_score>  (69) 
13.164645568193391

>  <path>  (69) 
/opt/xchem-fragalysis-2/maxwin/BulkDock/SCRATCH/511020/C48750-P7/C48750-P7.minimised.mol

>  <scratch_subdir>  (69) 
/opt/xchem-fragalysis-2/maxwin/BulkDock/SCRATCH/511020/C48750-P7

>  <fragmenstein_runtime>  (69) 
8.325752019882202

>  <fragmenstein_outcome>  (69) 
too moved

>  <fragmenstein_mode>  (69) 
expansion

>  <fragmenstein_error>  (69) 


$$$$
C48750-P114
     RDKit          3D

 40 42  0  0  0  0  0  0  0  0999 V2000
    2.9228    0.5134   28.0558 C   0  0  0  0  0  0  0  0  0  0  0  0
    2.3092   -0.7711   27.6401 N   0  0  0  0  0  0  0  0  0  0  0  0
    3.3892   -1.7426   27.0720 C   0  0  0  0  0  0  0  0  0  0  0  0
    4.2078   -1.3244   25.8363 C   0  0  0  0  0  0  0  0  0  0  0  0
    4.0512   -0.3235   24.8958 C   0  0  0  0  0  0  0  0  0  0  0  0
    5.0088   -0.5310   23.9352 N   0  0  0  0  0  0  0  0  0  0  0  0
    5.7642   -1.5910   24.3319 C   0  0  0  0  0  0  0  0  0  0  0  0
    5.3320   -2.0743   25.4749 N   0  0  0  0  0  0  0  0  0  0  0  0
    1.3562   -1.4944   28.9722 S   0  0  0  0  0  0  0  0  0  0  0  0
    0.8421   -2.7784   28.5529 O   0  0  0  0  0  0  0  0  0  0  0  0
    2.1357   -1.3613   30.1857 O   0  0  0  0  0  0  0  0  0  0  0  0
   -0.1482   -0.5290   29.3274 C   0  0  0  0  0  0  0  0  0  0  0  0
   -0.7697    0.4214   28.5305 C   0  0  0  0  0  0  0  0  0  0  0  0
   -1.8370    0.9275   29.2701 C   0  0  0  0  0  0  0  0  0  0  0  0
   -1.9553    0.3389   30.4527 N   0  0  0  0  0  0  0  0  0  0  0  0
   -0.9623   -0.5942   30.4651 N   0  0  0  0  0  0  0  0  0  0  0  0
   -0.9662   -1.5120   31.6077 C   0  0  0  0  0  0  0  0  0  0  0  0
   -2.1871   -2.4369   31.5761 C   0  0  0  0  0  0  0  0  0  0  0  0
   -3.2450   -1.7505   32.4471 C   0  0  0  0  0  0  0  0  0  0  0  0
   -2.4364   -1.2112   33.6069 C   0  0  0  0  0  0  0  0  0  0  0  0
   -1.0890   -0.8104   32.9882 C   0  0  0  0  0  0  0  0  0  0  0  0
    3.2116    1.0941   27.1768 H   0  0  0  0  0  0  0  0  0  0  0  0
    2.2062    1.1276   28.6081 H   0  0  0  0  0  0  0  0  0  0  0  0
    3.8066    0.3485   28.6790 H   0  0  0  0  0  0  0  0  0  0  0  0
    2.8798   -2.6762   26.8094 H   0  0  0  0  0  0  0  0  0  0  0  0
    4.0954   -1.9615   27.8830 H   0  0  0  0  0  0  0  0  0  0  0  0
    3.3240    0.4675   24.8052 H   0  0  0  0  0  0  0  0  0  0  0  0
    5.1214   -0.0021   23.0832 H   0  0  0  0  0  0  0  0  0  0  0  0
    6.5997   -1.9690   23.7601 H   0  0  0  0  0  0  0  0  0  0  0  0
   -0.4470    0.7215   27.5439 H   0  0  0  0  0  0  0  0  0  0  0  0
   -2.5211    1.7150   28.9877 H   0  0  0  0  0  0  0  0  0  0  0  0
   -0.0402   -2.0911   31.5476 H   0  0  0  0  0  0  0  0  0  0  0  0
   -1.9014   -3.3944   32.0263 H   0  0  0  0  0  0  0  0  0  0  0  0
   -2.5498   -2.6265   30.5639 H   0  0  0  0  0  0  0  0  0  0  0  0
   -3.7033   -0.9158   31.9151 H   0  0  0  0  0  0  0  0  0  0  0  0
   -4.0552   -2.4098   32.7591 H   0  0  0  0  0  0  0  0  0  0  0  0
   -2.2726   -1.9882   34.3608 H   0  0  0  0  0  0  0  0  0  0  0  0
   -2.9282   -0.3672   34.0995 H   0  0  0  0  0  0  0  0  0  0  0  0
   -1.0068    0.2795   32.9099 H   0  0  0  0  0  0  0  0  0  0  0  0
   -0.2762   -1.1369   33.6479 H   0  0  0  0  0  0  0  0  0  0  0  0
  1  2  1  0
  2  3  1  0
  3  4  1  0
  4  5  2  0
  5  6  1  0
  6  7  1  0
  7  8  2  0
  2  9  1  0
  9 10  2  0
  9 11  2  0
  9 12  1  0
 12 13  2  0
 13 14  1  0
 14 15  2  0
 15 16  1  0
 16 17  1  0
 17 18  1  0
 18 19  1  0
 19 20  1  0
 20 21  1  0
  8  4  1  0
 16 12  1  0
 21 17  1  0
  1 22  1  0
  1 23  1  0
  1 24  1  0
  3 25  1  0
  3 26  1  0
  5 27  1  0
  6 28  1  0
  7 29  1  0
 13 30  1  0
 14 31  1  0
 17 32  1  0
 18 33  1  0
 18 34  1  0
 19 35  1  0
 19 36  1  0
 20 37  1  0
 20 38  1  0
 21 39  1  0
 21 40  1  0
M  END
>  <Energy>  (70) 
-56.535868829581581

>  <compound_id>  (70) 
48750

>  <target_id>  (70) 
1

>  <reference_id>  (70) 
114

>  <inspiration_ids>  (70) 
[7, 114]

>  <energy_score>  (70) 
-31.372644521956886

>  <distance_score>  (70) 
13.132633530404247

>  <path>  (70) 
/opt/xchem-fragalysis-2/maxwin/BulkDock/SCRATCH/511020/C48750-P114/C48750-P114.minimised.mol

>  <scratch_subdir>  (70) 
/opt/xchem-fragalysis-2/maxwin/BulkDock/SCRATCH/511020/C48750-P114

>  <fragmenstein_runtime>  (70) 
6.264681339263916

>  <fragmenstein_outcome>  (70) 
too moved

>  <fragmenstein_mode>  (70) 
expansion

>  <fragmenstein_error>  (70) 


$$$$
C18002-P7
     RDKit          3D

 39 41  0  0  0  0  0  0  0  0999 V2000
    0.3681   -3.2400   28.5429 C   0  0  0  0  0  0  0  0  0  0  0  0
    0.9719   -1.9855   29.1747 C   0  0  0  0  0  0  0  0  0  0  0  0
   -0.0923   -1.3153   29.9707 N   0  0  0  0  0  0  0  0  0  0  0  0
   -1.0124   -1.8483   30.9870 C   0  0  0  0  0  0  0  0  0  0  0  0
   -1.0789   -2.9384   31.4821 O   0  0  0  0  0  0  0  0  0  0  0  0
   -2.0708   -0.8590   31.5313 C   0  0  0  0  0  0  0  0  0  0  0  0
   -2.1560    0.5537   31.3884 C   0  0  0  0  0  0  0  0  0  0  0  0
   -3.2515    0.9580   32.1187 C   0  0  0  0  0  0  0  0  0  0  0  0
   -3.7983   -0.1704   32.6646 N   0  0  0  0  0  0  0  0  0  0  0  0
   -5.0119   -0.1750   33.4671 C   0  0  0  0  0  0  0  0  0  0  0  0
   -4.7823    0.0417   34.9648 C   0  0  0  0  0  0  0  0  0  0  0  0
   -6.1195   -0.3277   35.6263 C   0  0  0  0  0  0  0  0  0  0  0  0
   -6.9211   -1.0838   34.5689 C   0  0  0  0  0  0  0  0  0  0  0  0
   -5.9151   -1.4092   33.4614 C   0  0  0  0  0  0  0  0  0  0  0  0
   -3.1150   -1.2841   32.3149 N   0  0  0  0  0  0  0  0  0  0  0  0
    1.7950   -1.1470   28.1618 C   0  0  0  0  0  0  0  0  0  0  0  0
    2.0997    0.1423   28.2147 N   0  0  0  0  0  0  0  0  0  0  0  0
    3.0640    0.3662   27.2455 C   0  0  0  0  0  0  0  0  0  0  0  0
    3.3425   -0.7839   26.5580 C   0  0  0  0  0  0  0  0  0  0  0  0
    2.5081   -1.7207   27.1067 N   0  0  0  0  0  0  0  0  0  0  0  0
   -0.0277   -3.9179   29.3067 H   0  0  0  0  0  0  0  0  0  0  0  0
    1.0969   -3.8160   27.9685 H   0  0  0  0  0  0  0  0  0  0  0  0
   -0.4689   -2.9705   27.8964 H   0  0  0  0  0  0  0  0  0  0  0  0
    1.6959   -2.3258   29.9271 H   0  0  0  0  0  0  0  0  0  0  0  0
   -0.3767   -0.3770   29.7263 H   0  0  0  0  0  0  0  0  0  0  0  0
   -1.4844    1.2050   30.8473 H   0  0  0  0  0  0  0  0  0  0  0  0
   -3.6730    1.9383   32.2930 H   0  0  0  0  0  0  0  0  0  0  0  0
   -5.6096    0.6673   33.0865 H   0  0  0  0  0  0  0  0  0  0  0  0
   -4.4875    1.0708   35.1946 H   0  0  0  0  0  0  0  0  0  0  0  0
   -3.9883   -0.6184   35.3357 H   0  0  0  0  0  0  0  0  0  0  0  0
   -6.6610    0.5699   35.9444 H   0  0  0  0  0  0  0  0  0  0  0  0
   -5.9455   -0.9377   36.5180 H   0  0  0  0  0  0  0  0  0  0  0  0
   -7.7053   -0.4301   34.1695 H   0  0  0  0  0  0  0  0  0  0  0  0
   -7.4125   -1.9649   34.9840 H   0  0  0  0  0  0  0  0  0  0  0  0
   -5.3449   -2.3117   33.7106 H   0  0  0  0  0  0  0  0  0  0  0  0
   -6.4047   -1.5659   32.4961 H   0  0  0  0  0  0  0  0  0  0  0  0
    3.4941    1.3481   27.0990 H   0  0  0  0  0  0  0  0  0  0  0  0
    3.9995   -1.0129   25.7293 H   0  0  0  0  0  0  0  0  0  0  0  0
    2.4139   -2.6656   26.7626 H   0  0  0  0  0  0  0  0  0  0  0  0
  1  2  1  0
  2  3  1  0
  3  4  1  0
  4  5  2  0
  4  6  1  0
  6  7  1  0
  7  8  2  0
  8  9  1  0
  9 10  1  0
 10 11  1  0
 11 12  1  0
 12 13  1  0
 13 14  1  0
  9 15  1  0
  2 16  1  0
 16 17  2  0
 17 18  1  0
 18 19  2  0
 19 20  1  0
 15  6  2  0
 20 16  1  0
 14 10  1  0
  1 21  1  0
  1 22  1  0
  1 23  1  0
  2 24  1  0
  3 25  1  0
  7 26  1  0
  8 27  1  0
 10 28  1  0
 11 29  1  0
 11 30  1  0
 12 31  1  0
 12 32  1  0
 13 33  1  0
 13 34  1  0
 14 35  1  0
 14 36  1  0
 18 37  1  0
 19 38  1  0
 20 39  1  0
M  END
>  <Energy>  (71) 
58.06523799804544

>  <compound_id>  (71) 
18002

>  <target_id>  (71) 
1

>  <reference_id>  (71) 
7

>  <inspiration_ids>  (71) 
[7, 114]

>  <energy_score>  (71) 
7.616938670579145

>  <distance_score>  (71) 
12.403832256681804

>  <path>  (71) 
/opt/xchem-fragalysis-2/maxwin/BulkDock/SCRATCH/511020/C18002-P7/C18002-P7.minimised.mol

>  <scratch_subdir>  (71) 
/opt/xchem-fragalysis-2/maxwin/BulkDock/SCRATCH/511020/C18002-P7

>  <fragmenstein_runtime>  (71) 
11.014450073242188

>  <fragmenstein_outcome>  (71) 
too moved

>  <fragmenstein_mode>  (71) 
expansion

>  <fragmenstein_error>  (71) 


$$$$
C18002-P114
     RDKit          3D

 39 41  0  0  0  0  0  0  0  0999 V2000
    2.4080   -2.8588   29.7158 C   0  0  0  0  0  0  0  0  0  0  0  0
    1.4256   -2.1858   28.7449 C   0  0  0  0  0  0  0  0  0  0  0  0
    0.2567   -1.7107   29.5295 N   0  0  0  0  0  0  0  0  0  0  0  0
   -0.7403   -2.4521   30.3067 C   0  0  0  0  0  0  0  0  0  0  0  0
   -0.9051   -3.6314   30.4363 O   0  0  0  0  0  0  0  0  0  0  0  0
   -1.7653   -1.6158   31.1290 C   0  0  0  0  0  0  0  0  0  0  0  0
   -1.8698   -0.2180   31.3887 C   0  0  0  0  0  0  0  0  0  0  0  0
   -2.9407   -0.0482   32.2503 C   0  0  0  0  0  0  0  0  0  0  0  0
   -3.4562   -1.2912   32.4782 N   0  0  0  0  0  0  0  0  0  0  0  0
   -4.5560   -1.6624   33.3712 C   0  0  0  0  0  0  0  0  0  0  0  0
   -4.2851   -1.3429   34.8559 C   0  0  0  0  0  0  0  0  0  0  0  0
   -5.5046   -0.5649   35.3627 C   0  0  0  0  0  0  0  0  0  0  0  0
   -6.6283   -0.9348   34.4144 C   0  0  0  0  0  0  0  0  0  0  0  0
   -5.9186   -1.0068   33.0692 C   0  0  0  0  0  0  0  0  0  0  0  0
   -2.7790   -2.2457   31.8002 N   0  0  0  0  0  0  0  0  0  0  0  0
    2.2247   -1.2285   27.8512 C   0  0  0  0  0  0  0  0  0  0  0  0
    2.6628   -0.0078   28.1152 N   0  0  0  0  0  0  0  0  0  0  0  0
    3.5866    0.2983   27.1315 C   0  0  0  0  0  0  0  0  0  0  0  0
    3.7137   -0.7310   26.2382 C   0  0  0  0  0  0  0  0  0  0  0  0
    2.8189   -1.6719   26.6708 N   0  0  0  0  0  0  0  0  0  0  0  0
    3.2650   -3.2885   29.1875 H   0  0  0  0  0  0  0  0  0  0  0  0
    1.9234   -3.6665   30.2748 H   0  0  0  0  0  0  0  0  0  0  0  0
    2.7933   -2.1370   30.4456 H   0  0  0  0  0  0  0  0  0  0  0  0
    1.0166   -2.9756   28.1015 H   0  0  0  0  0  0  0  0  0  0  0  0
    0.0501   -0.7228   29.5832 H   0  0  0  0  0  0  0  0  0  0  0  0
   -1.2253    0.5680   31.0219 H   0  0  0  0  0  0  0  0  0  0  0  0
   -3.3530    0.8366   32.7141 H   0  0  0  0  0  0  0  0  0  0  0  0
   -4.6713   -2.7509   33.2731 H   0  0  0  0  0  0  0  0  0  0  0  0
   -4.1868   -2.2813   35.4141 H   0  0  0  0  0  0  0  0  0  0  0  0
   -3.3641   -0.7746   35.0238 H   0  0  0  0  0  0  0  0  0  0  0  0
   -5.3014    0.5108   35.2913 H   0  0  0  0  0  0  0  0  0  0  0  0
   -5.7374   -0.7858   36.4077 H   0  0  0  0  0  0  0  0  0  0  0  0
   -7.0527   -1.9030   34.6813 H   0  0  0  0  0  0  0  0  0  0  0  0
   -7.4323   -0.1943   34.4206 H   0  0  0  0  0  0  0  0  0  0  0  0
   -6.4928   -1.5753   32.3313 H   0  0  0  0  0  0  0  0  0  0  0  0
   -5.7915    0.0106   32.6824 H   0  0  0  0  0  0  0  0  0  0  0  0
    4.1015    1.2489   27.1289 H   0  0  0  0  0  0  0  0  0  0  0  0
    4.2962   -0.8651   25.3368 H   0  0  0  0  0  0  0  0  0  0  0  0
    2.5937   -2.5263   26.1762 H   0  0  0  0  0  0  0  0  0  0  0  0
  1  2  1  0
  2  3  1  0
  3  4  1  0
  4  5  2  0
  4  6  1  0
  6  7  1  0
  7  8  2  0
  8  9  1  0
  9 10  1  0
 10 11  1  0
 11 12  1  0
 12 13  1  0
 13 14  1  0
  9 15  1  0
  2 16  1  0
 16 17  2  0
 17 18  1  0
 18 19  2  0
 19 20  1  0
 15  6  2  0
 20 16  1  0
 14 10  1  0
  1 21  1  0
  1 22  1  0
  1 23  1  0
  2 24  1  0
  3 25  1  0
  7 26  1  0
  8 27  1  0
 10 28  1  0
 11 29  1  0
 11 30  1  0
 12 31  1  0
 12 32  1  0
 13 33  1  0
 13 34  1  0
 14 35  1  0
 14 36  1  0
 18 37  1  0
 19 38  1  0
 20 39  1  0
M  END
>  <Energy>  (72) 
56.902687416991569

>  <compound_id>  (72) 
18002

>  <target_id>  (72) 
1

>  <reference_id>  (72) 
114

>  <inspiration_ids>  (72) 
[7, 114]

>  <energy_score>  (72) 
6.454388089524912

>  <distance_score>  (72) 
12.34097392705778

>  <path>  (72) 
/opt/xchem-fragalysis-2/maxwin/BulkDock/SCRATCH/511020/C18002-P114/C18002-P114.minimised.mol

>  <scratch_subdir>  (72) 
/opt/xchem-fragalysis-2/maxwin/BulkDock/SCRATCH/511020/C18002-P114

>  <fragmenstein_runtime>  (72) 
10.862491846084595

>  <fragmenstein_outcome>  (72) 
too moved

>  <fragmenstein_mode>  (72) 
expansion

>  <fragmenstein_error>  (72) 


$$$$
C18003-P7
     RDKit          3D

 36 38  0  0  0  0  0  0  0  0999 V2000
   -0.1298   -1.7447   28.8690 O   0  0  0  0  0  0  0  0  0  0  0  0
    0.0144   -0.5889   29.1669 C   0  0  0  0  0  0  0  0  0  0  0  0
    1.2299    0.2643   28.6641 C   0  0  0  0  0  0  0  0  0  0  0  0
    2.2098   -0.2677   27.6245 C   0  0  0  0  0  0  0  0  0  0  0  0
    3.0741    0.4907   26.9545 N   0  0  0  0  0  0  0  0  0  0  0  0
    3.8194   -0.3578   26.1680 C   0  0  0  0  0  0  0  0  0  0  0  0
    3.4244   -1.6510   26.3687 C   0  0  0  0  0  0  0  0  0  0  0  0
    2.3943   -1.5845   27.2707 N   0  0  0  0  0  0  0  0  0  0  0  0
   -0.8131    0.3005   30.0254 N   0  0  0  0  0  0  0  0  0  0  0  0
   -1.9435    0.0300   30.8066 C   0  0  0  0  0  0  0  0  0  0  0  0
   -2.5670    0.9903   31.6577 C   0  0  0  0  0  0  0  0  0  0  0  0
   -3.6290    0.5285   32.3176 N   0  0  0  0  0  0  0  0  0  0  0  0
   -3.7283   -0.7497   31.9069 N   0  0  0  0  0  0  0  0  0  0  0  0
   -4.8011   -1.5889   32.4500 C   0  0  0  0  0  0  0  0  0  0  0  0
   -4.7180   -1.7611   33.9817 C   0  0  0  0  0  0  0  0  0  0  0  0
   -6.0195   -1.2010   34.5724 C   0  0  0  0  0  0  0  0  0  0  0  0
   -6.6071   -0.3213   33.4891 C   0  0  0  0  0  0  0  0  0  0  0  0
   -6.2070   -1.0197   32.1969 C   0  0  0  0  0  0  0  0  0  0  0  0
   -2.7368   -1.0878   30.9946 C   0  0  0  0  0  0  0  0  0  0  0  0
    1.8192    0.5258   29.5526 H   0  0  0  0  0  0  0  0  0  0  0  0
    0.8184    1.1955   28.2520 H   0  0  0  0  0  0  0  0  0  0  0  0
    4.5773   -0.0043   25.4855 H   0  0  0  0  0  0  0  0  0  0  0  0
    3.7393   -2.5769   25.9152 H   0  0  0  0  0  0  0  0  0  0  0  0
    1.8249   -2.3583   27.5865 H   0  0  0  0  0  0  0  0  0  0  0  0
   -0.3478    1.1961   30.1241 H   0  0  0  0  0  0  0  0  0  0  0  0
   -2.2747    2.0197   31.8192 H   0  0  0  0  0  0  0  0  0  0  0  0
   -4.6969   -2.5599   31.9513 H   0  0  0  0  0  0  0  0  0  0  0  0
   -3.8523   -1.2436   34.4105 H   0  0  0  0  0  0  0  0  0  0  0  0
   -4.6172   -2.8198   34.2466 H   0  0  0  0  0  0  0  0  0  0  0  0
   -5.8397   -0.6479   35.4994 H   0  0  0  0  0  0  0  0  0  0  0  0
   -6.7164   -2.0075   34.8060 H   0  0  0  0  0  0  0  0  0  0  0  0
   -6.1616    0.6782   33.5353 H   0  0  0  0  0  0  0  0  0  0  0  0
   -7.6900   -0.2112   33.5843 H   0  0  0  0  0  0  0  0  0  0  0  0
   -6.2583   -0.3467   31.3350 H   0  0  0  0  0  0  0  0  0  0  0  0
   -6.8923   -1.8486   32.0103 H   0  0  0  0  0  0  0  0  0  0  0  0
   -2.6836   -2.0825   30.5757 H   0  0  0  0  0  0  0  0  0  0  0  0
  1  2  2  0
  2  3  1  0
  3  4  1  0
  4  5  2  0
  5  6  1  0
  6  7  2  0
  7  8  1  0
  2  9  1  0
  9 10  1  0
 10 11  1  0
 11 12  2  0
 12 13  1  0
 13 14  1  0
 14 15  1  0
 15 16  1  0
 16 17  1  0
 17 18  1  0
 13 19  1  0
  8  4  1  0
 19 10  2  0
 18 14  1  0
  3 20  1  0
  3 21  1  0
  6 22  1  0
  7 23  1  0
  8 24  1  0
  9 25  1  0
 11 26  1  0
 14 27  1  0
 15 28  1  0
 15 29  1  0
 16 30  1  0
 16 31  1  0
 17 32  1  0
 17 33  1  0
 18 34  1  0
 18 35  1  0
 19 36  1  0
M  END
>  <Energy>  (73) 
30.697153298637993

>  <compound_id>  (73) 
18003

>  <target_id>  (73) 
1

>  <reference_id>  (73) 
7

>  <inspiration_ids>  (73) 
[7, 114]

>  <energy_score>  (73) 
-43.03031929368049

>  <distance_score>  (73) 
12.296163788155186

>  <path>  (73) 
/opt/xchem-fragalysis-2/maxwin/BulkDock/SCRATCH/511020/C18003-P7/C18003-P7.minimised.mol

>  <scratch_subdir>  (73) 
/opt/xchem-fragalysis-2/maxwin/BulkDock/SCRATCH/511020/C18003-P7

>  <fragmenstein_runtime>  (73) 
6.5492095947265625

>  <fragmenstein_outcome>  (73) 
too moved

>  <fragmenstein_mode>  (73) 
expansion

>  <fragmenstein_error>  (73) 


$$$$
C18003-P114
     RDKit          3D

 36 38  0  0  0  0  0  0  0  0999 V2000
    3.5569   -3.2368   25.1329 O   0  0  0  0  0  0  0  0  0  0  0  0
    3.7305   -2.0591   24.9954 C   0  0  0  0  0  0  0  0  0  0  0  0
    4.7246   -1.8015   23.7721 C   0  0  0  0  0  0  0  0  0  0  0  0
    5.3233   -1.2967   22.1144 C   0  0  0  0  0  0  0  0  0  0  0  0
    5.5217   -0.0755   21.5283 N   0  0  0  0  0  0  0  0  0  0  0  0
    6.8340   -0.2065   20.3797 C   0  0  0  0  0  0  0  0  0  0  0  0
    7.1495   -1.4885   20.3960 C   0  0  0  0  0  0  0  0  0  0  0  0
    6.1307   -2.2798   21.0189 N   0  0  0  0  0  0  0  0  0  0  0  0
    3.2646   -0.9332   25.8090 N   0  0  0  0  0  0  0  0  0  0  0  0
    2.3811   -0.8977   26.9594 C   0  0  0  0  0  0  0  0  0  0  0  0
    1.9678   -2.0662   27.6889 C   0  0  0  0  0  0  0  0  0  0  0  0
    0.9800   -1.8828   28.5750 N   0  0  0  0  0  0  0  0  0  0  0  0
    0.6861   -0.5781   28.4509 N   0  0  0  0  0  0  0  0  0  0  0  0
   -0.5197   -0.0658   29.1221 C   0  0  0  0  0  0  0  0  0  0  0  0
   -1.8269   -0.4844   28.4202 C   0  0  0  0  0  0  0  0  0  0  0  0
   -2.8893   -0.5133   29.5259 C   0  0  0  0  0  0  0  0  0  0  0  0
   -2.1416   -1.1135   30.7010 C   0  0  0  0  0  0  0  0  0  0  0  0
   -0.7369   -0.5031   30.6017 C   0  0  0  0  0  0  0  0  0  0  0  0
    1.5673    0.0699   27.5636 C   0  0  0  0  0  0  0  0  0  0  0  0
    5.6323   -2.2533   24.1792 H   0  0  0  0  0  0  0  0  0  0  0  0
    4.0404   -2.4550   23.2460 H   0  0  0  0  0  0  0  0  0  0  0  0
    7.3575    0.6309   19.9694 H   0  0  0  0  0  0  0  0  0  0  0  0
    7.8335   -1.5986   19.6074 H   0  0  0  0  0  0  0  0  0  0  0  0
    5.5924   -2.9721   20.5345 H   0  0  0  0  0  0  0  0  0  0  0  0
    3.5273   -0.0648   25.3526 H   0  0  0  0  0  0  0  0  0  0  0  0
    2.3498   -3.0681   27.5469 H   0  0  0  0  0  0  0  0  0  0  0  0
   -0.4264    1.0276   29.0956 H   0  0  0  0  0  0  0  0  0  0  0  0
   -2.0956    0.2071   27.6151 H   0  0  0  0  0  0  0  0  0  0  0  0
   -1.7357   -1.4846   27.9798 H   0  0  0  0  0  0  0  0  0  0  0  0
   -3.2149    0.5068   29.7603 H   0  0  0  0  0  0  0  0  0  0  0  0
   -3.7663   -1.1015   29.2419 H   0  0  0  0  0  0  0  0  0  0  0  0
   -2.6211   -0.8978   31.6600 H   0  0  0  0  0  0  0  0  0  0  0  0
   -2.0774   -2.2022   30.5881 H   0  0  0  0  0  0  0  0  0  0  0  0
    0.0226   -1.2014   30.9675 H   0  0  0  0  0  0  0  0  0  0  0  0
   -0.6839    0.3869   31.2410 H   0  0  0  0  0  0  0  0  0  0  0  0
    1.4432    1.1233   27.3647 H   0  0  0  0  0  0  0  0  0  0  0  0
  1  2  2  0
  2  3  1  0
  3  4  1  0
  4  5  2  0
  5  6  1  0
  6  7  2  0
  7  8  1  0
  2  9  1  0
  9 10  1  0
 10 11  1  0
 11 12  2  0
 12 13  1  0
 13 14  1  0
 14 15  1  0
 15 16  1  0
 16 17  1  0
 17 18  1  0
 13 19  1  0
  8  4  1  0
 19 10  2  0
 18 14  1  0
  3 20  1  0
  3 21  1  0
  6 22  1  0
  7 23  1  0
  8 24  1  0
  9 25  1  0
 11 26  1  0
 14 27  1  0
 15 28  1  0
 15 29  1  0
 16 30  1  0
 16 31  1  0
 17 32  1  0
 17 33  1  0
 18 34  1  0
 18 35  1  0
 19 36  1  0
M  END
>  <Energy>  (74) 
237.07156964154632

>  <compound_id>  (74) 
18003

>  <target_id>  (74) 
1

>  <reference_id>  (74) 
114

>  <inspiration_ids>  (74) 
[7, 114]

>  <energy_score>  (74) 
163.34409704923223

>  <distance_score>  (74) 
13.722931125250696

>  <path>  (74) 
/opt/xchem-fragalysis-2/maxwin/BulkDock/SCRATCH/511020/C18003-P114/C18003-P114.minimised.mol

>  <scratch_subdir>  (74) 
/opt/xchem-fragalysis-2/maxwin/BulkDock/SCRATCH/511020/C18003-P114

>  <fragmenstein_runtime>  (74) 
7.596211671829224

>  <fragmenstein_outcome>  (74) 
too moved

>  <fragmenstein_mode>  (74) 
expansion

>  <fragmenstein_error>  (74) 


$$$$
C18004-P7
     RDKit          3D

 45 46  0  0  0  0  0  0  0  0999 V2000
   -1.4619  -10.6338   23.2799 C   0  0  0  0  0  0  0  0  0  0  0  0
   -2.1918   -9.5728   22.4591 C   0  0  0  0  0  0  0  0  0  0  0  0
   -3.7074   -9.9734   22.3975 C   0  0  0  0  0  0  0  0  0  0  0  0
   -4.7831   -9.1735   23.2137 C   0  0  0  0  0  0  0  0  0  0  0  0
   -4.7092   -7.6798   22.9355 C   0  0  0  0  0  0  0  0  0  0  0  0
   -4.9514   -9.4265   24.6596 N   0  0  0  0  0  0  0  0  0  0  0  0
   -5.8515   -8.8045   25.6486 C   0  0  0  0  0  0  0  0  0  0  0  0
   -6.6132   -7.8842   25.5395 O   0  0  0  0  0  0  0  0  0  0  0  0
   -5.7490   -9.5091   27.0269 C   0  0  0  0  0  0  0  0  0  0  0  0
   -6.4116   -8.8205   28.1636 N   0  0  0  0  0  0  0  0  0  0  0  0
   -5.8089   -8.4128   29.3353 C   0  0  0  0  0  0  0  0  0  0  0  0
   -6.8089   -7.9866   30.1794 C   0  0  0  0  0  0  0  0  0  0  0  0
   -7.9908   -8.2259   29.4623 C   0  0  0  0  0  0  0  0  0  0  0  0
   -7.7596   -8.7538   28.2567 N   0  0  0  0  0  0  0  0  0  0  0  0
   -1.5468   -9.4148   21.1138 N   0  0  0  0  0  0  0  0  0  0  0  0
   -0.1230   -9.3089   20.7297 C   0  0  0  0  0  0  0  0  0  0  0  0
    0.8746   -9.4035   21.3926 O   0  0  0  0  0  0  0  0  0  0  0  0
    0.0274   -9.1029   19.1876 C   0  0  0  0  0  0  0  0  0  0  0  0
    1.3025   -8.3850   18.7317 C   0  0  0  0  0  0  0  0  0  0  0  0
    1.3848   -7.1719   18.2061 N   0  0  0  0  0  0  0  0  0  0  0  0
    2.6894   -6.9970   17.8000 C   0  0  0  0  0  0  0  0  0  0  0  0
    3.4181   -8.1340   18.0403 C   0  0  0  0  0  0  0  0  0  0  0  0
    2.5406   -8.9932   18.6568 N   0  0  0  0  0  0  0  0  0  0  0  0
   -0.4163  -10.3696   23.4147 H   0  0  0  0  0  0  0  0  0  0  0  0
   -1.4889  -11.6097   22.7825 H   0  0  0  0  0  0  0  0  0  0  0  0
   -1.9093  -10.7386   24.2739 H   0  0  0  0  0  0  0  0  0  0  0  0
   -2.0730   -8.6066   22.9560 H   0  0  0  0  0  0  0  0  0  0  0  0
   -3.8236  -11.0359   22.6492 H   0  0  0  0  0  0  0  0  0  0  0  0
   -4.0167   -9.8949   21.3454 H   0  0  0  0  0  0  0  0  0  0  0  0
   -5.7473   -9.5058   22.8038 H   0  0  0  0  0  0  0  0  0  0  0  0
   -3.8889   -7.2270   23.4957 H   0  0  0  0  0  0  0  0  0  0  0  0
   -4.5788   -7.4863   21.8664 H   0  0  0  0  0  0  0  0  0  0  0  0
   -5.6296   -7.1721   23.2409 H   0  0  0  0  0  0  0  0  0  0  0  0
   -4.5109  -10.2397   25.0762 H   0  0  0  0  0  0  0  0  0  0  0  0
   -6.2120  -10.4991   26.9592 H   0  0  0  0  0  0  0  0  0  0  0  0
   -4.6934   -9.6151   27.2985 H   0  0  0  0  0  0  0  0  0  0  0  0
   -4.7389   -8.4830   29.4729 H   0  0  0  0  0  0  0  0  0  0  0  0
   -6.7029   -7.6046   31.1852 H   0  0  0  0  0  0  0  0  0  0  0  0
   -9.0149   -8.0618   29.7717 H   0  0  0  0  0  0  0  0  0  0  0  0
   -2.1251   -9.1978   20.3095 H   0  0  0  0  0  0  0  0  0  0  0  0
   -0.8295   -8.5428   18.8005 H   0  0  0  0  0  0  0  0  0  0  0  0
    0.0006  -10.0983   18.7279 H   0  0  0  0  0  0  0  0  0  0  0  0
    3.0174   -6.0677   17.3518 H   0  0  0  0  0  0  0  0  0  0  0  0
    4.4506   -8.3947   17.8617 H   0  0  0  0  0  0  0  0  0  0  0  0
    2.7522   -9.9208   18.9975 H   0  0  0  0  0  0  0  0  0  0  0  0
  1  2  1  0
  2  3  1  0
  3  4  1  0
  4  5  1  0
  4  6  1  0
  6  7  1  0
  7  8  2  0
  7  9  1  0
  9 10  1  0
 10 11  1  0
 11 12  2  0
 12 13  1  0
 13 14  2  0
  2 15  1  0
 15 16  1  0
 16 17  2  0
 16 18  1  0
 18 19  1  0
 19 20  2  0
 20 21  1  0
 21 22  2  0
 22 23  1  0
 14 10  1  0
 23 19  1  0
  1 24  1  0
  1 25  1  0
  1 26  1  0
  2 27  1  0
  3 28  1  0
  3 29  1  0
  4 30  1  0
  5 31  1  0
  5 32  1  0
  5 33  1  0
  6 34  1  0
  9 35  1  0
  9 36  1  0
 11 37  1  0
 12 38  1  0
 13 39  1  0
 15 40  1  0
 18 41  1  0
 18 42  1  0
 21 43  1  0
 22 44  1  0
 23 45  1  0
M  END
>  <Energy>  (75) 
48.879685412588991

>  <compound_id>  (75) 
18004

>  <target_id>  (75) 
1

>  <reference_id>  (75) 
7

>  <inspiration_ids>  (75) 
[7, 114]

>  <energy_score>  (75) 
0.79245467466626

>  <distance_score>  (75) 
13.293882614286701

>  <path>  (75) 
/opt/xchem-fragalysis-2/maxwin/BulkDock/SCRATCH/511020/C18004-P7/C18004-P7.minimised.mol

>  <scratch_subdir>  (75) 
/opt/xchem-fragalysis-2/maxwin/BulkDock/SCRATCH/511020/C18004-P7

>  <fragmenstein_runtime>  (75) 
21.394123554229736

>  <fragmenstein_outcome>  (75) 
too moved

>  <fragmenstein_mode>  (75) 
expansion

>  <fragmenstein_error>  (75) 


$$$$
C18004-P114
     RDKit          3D

 45 46  0  0  0  0  0  0  0  0999 V2000
    2.9664   -1.9230   31.4795 C   0  0  0  0  0  0  0  0  0  0  0  0
    2.4579   -0.8805   30.4784 C   0  0  0  0  0  0  0  0  0  0  0  0
    0.9172   -1.0680   30.2718 C   0  0  0  0  0  0  0  0  0  0  0  0
    0.0743   -0.2993   31.3472 C   0  0  0  0  0  0  0  0  0  0  0  0
   -0.1761    1.1319   30.8718 C   0  0  0  0  0  0  0  0  0  0  0  0
   -1.1759   -0.9740   31.7565 N   0  0  0  0  0  0  0  0  0  0  0  0
   -2.4284   -0.4311   32.3041 C   0  0  0  0  0  0  0  0  0  0  0  0
   -2.7769    0.7039   32.4803 O   0  0  0  0  0  0  0  0  0  0  0  0
   -3.3691   -1.5883   32.7167 C   0  0  0  0  0  0  0  0  0  0  0  0
   -4.5203   -1.1868   33.5411 N   0  0  0  0  0  0  0  0  0  0  0  0
   -5.8495   -1.2110   33.1927 C   0  0  0  0  0  0  0  0  0  0  0  0
   -6.5559   -0.8025   34.3007 C   0  0  0  0  0  0  0  0  0  0  0  0
   -5.5788   -0.6204   35.2904 C   0  0  0  0  0  0  0  0  0  0  0  0
   -4.3519   -0.9211   34.8564 N   0  0  0  0  0  0  0  0  0  0  0  0
    3.2651   -0.8965   29.2447 N   0  0  0  0  0  0  0  0  0  0  0  0
    4.7140   -1.0186   29.0466 C   0  0  0  0  0  0  0  0  0  0  0  0
    5.5957   -1.2161   29.8356 O   0  0  0  0  0  0  0  0  0  0  0  0
    5.0575   -0.8059   27.5448 C   0  0  0  0  0  0  0  0  0  0  0  0
    6.5461   -0.6944   27.2753 C   0  0  0  0  0  0  0  0  0  0  0  0
    7.2949    0.3981   27.2788 N   0  0  0  0  0  0  0  0  0  0  0  0
    8.5707   -0.0038   26.9480 C   0  0  0  0  0  0  0  0  0  0  0  0
    8.6000   -1.3501   26.6878 C   0  0  0  0  0  0  0  0  0  0  0  0
    7.3083   -1.7686   26.8682 N   0  0  0  0  0  0  0  0  0  0  0  0
    2.3569   -1.9338   32.3888 H   0  0  0  0  0  0  0  0  0  0  0  0
    3.9960   -1.7115   31.7841 H   0  0  0  0  0  0  0  0  0  0  0  0
    2.9484   -2.9280   31.0435 H   0  0  0  0  0  0  0  0  0  0  0  0
    2.6413    0.1132   30.9038 H   0  0  0  0  0  0  0  0  0  0  0  0
    0.6284   -0.7211   29.2714 H   0  0  0  0  0  0  0  0  0  0  0  0
    0.6769   -2.1384   30.2999 H   0  0  0  0  0  0  0  0  0  0  0  0
    0.6552   -0.2469   32.2755 H   0  0  0  0  0  0  0  0  0  0  0  0
    0.7500    1.6081   30.5339 H   0  0  0  0  0  0  0  0  0  0  0  0
   -0.5762    1.7479   31.6829 H   0  0  0  0  0  0  0  0  0  0  0  0
   -0.8934    1.1522   30.0442 H   0  0  0  0  0  0  0  0  0  0  0  0
   -1.2576   -1.9810   31.6759 H   0  0  0  0  0  0  0  0  0  0  0  0
   -2.8141   -2.3275   33.3050 H   0  0  0  0  0  0  0  0  0  0  0  0
   -3.7622   -2.0688   31.8156 H   0  0  0  0  0  0  0  0  0  0  0  0
   -6.1773   -1.4906   32.2025 H   0  0  0  0  0  0  0  0  0  0  0  0
   -7.6239   -0.6728   34.3836 H   0  0  0  0  0  0  0  0  0  0  0  0
   -5.7067   -0.3089   36.3192 H   0  0  0  0  0  0  0  0  0  0  0  0
    2.8292   -0.6464   28.3626 H   0  0  0  0  0  0  0  0  0  0  0  0
    4.5809    0.1219   27.2071 H   0  0  0  0  0  0  0  0  0  0  0  0
    4.6300   -1.6381   26.9752 H   0  0  0  0  0  0  0  0  0  0  0  0
    9.3891    0.7029   26.9151 H   0  0  0  0  0  0  0  0  0  0  0  0
    9.3996   -2.0159   26.4110 H   0  0  0  0  0  0  0  0  0  0  0  0
    6.9324   -2.6967   26.7042 H   0  0  0  0  0  0  0  0  0  0  0  0
  1  2  1  0
  2  3  1  0
  3  4  1  0
  4  5  1  0
  4  6  1  0
  6  7  1  0
  7  8  2  0
  7  9  1  0
  9 10  1  0
 10 11  1  0
 11 12  2  0
 12 13  1  0
 13 14  2  0
  2 15  1  0
 15 16  1  0
 16 17  2  0
 16 18  1  0
 18 19  1  0
 19 20  2  0
 20 21  1  0
 21 22  2  0
 22 23  1  0
 14 10  1  0
 23 19  1  0
  1 24  1  0
  1 25  1  0
  1 26  1  0
  2 27  1  0
  3 28  1  0
  3 29  1  0
  4 30  1  0
  5 31  1  0
  5 32  1  0
  5 33  1  0
  6 34  1  0
  9 35  1  0
  9 36  1  0
 11 37  1  0
 12 38  1  0
 13 39  1  0
 15 40  1  0
 18 41  1  0
 18 42  1  0
 21 43  1  0
 22 44  1  0
 23 45  1  0
M  END
>  <Energy>  (76) 
43.655105712513873

>  <compound_id>  (76) 
18004

>  <target_id>  (76) 
1

>  <reference_id>  (76) 
114

>  <inspiration_ids>  (76) 
[7, 114]

>  <energy_score>  (76) 
-4.432125025407231

>  <distance_score>  (76) 
11.12760127878099

>  <path>  (76) 
/opt/xchem-fragalysis-2/maxwin/BulkDock/SCRATCH/511020/C18004-P114/C18004-P114.minimised.mol

>  <scratch_subdir>  (76) 
/opt/xchem-fragalysis-2/maxwin/BulkDock/SCRATCH/511020/C18004-P114

>  <fragmenstein_runtime>  (76) 
18.136826038360596

>  <fragmenstein_outcome>  (76) 
too moved

>  <fragmenstein_mode>  (76) 
expansion

>  <fragmenstein_error>  (76) 


$$$$
C18005-P7
     RDKit          3D

 42 43  0  0  0  0  0  0  0  0999 V2000
    4.6555   -2.4746   30.6751 C   0  0  0  0  0  0  0  0  0  0  0  0
    4.4550   -1.4545   29.5633 C   0  0  0  0  0  0  0  0  0  0  0  0
    3.9321   -2.1219   28.2893 C   0  0  0  0  0  0  0  0  0  0  0  0
    3.8746   -1.2209   27.0451 C   0  0  0  0  0  0  0  0  0  0  0  0
    3.1355    0.0866   27.2568 C   0  0  0  0  0  0  0  0  0  0  0  0
    3.2127    1.1798   26.1564 C   0  0  0  0  0  0  0  0  0  0  0  0
    3.6903    1.1542   24.7715 N   0  0  0  0  0  0  0  0  0  0  0  0
    4.6738    0.1906   24.0535 C   0  0  0  0  0  0  0  0  0  0  0  0
    5.2125   -0.8170   24.4546 O   0  0  0  0  0  0  0  0  0  0  0  0
    5.0743    0.9054   22.3583 C   0  0  0  0  0  0  0  0  0  0  0  0
    5.2836    0.4154   21.1309 N   0  0  0  0  0  0  0  0  0  0  0  0
    6.5556    0.6073   20.4402 C   0  0  0  0  0  0  0  0  0  0  0  0
    7.2098    1.5460   21.0719 C   0  0  0  0  0  0  0  0  0  0  0  0
    6.4349    1.9468   22.0264 N   0  0  0  0  0  0  0  0  0  0  0  0
    1.7926   -0.0986   27.8519 N   0  0  0  0  0  0  0  0  0  0  0  0
    1.1041    0.6425   28.8761 C   0  0  0  0  0  0  0  0  0  0  0  0
    1.4099    1.6459   29.4523 O   0  0  0  0  0  0  0  0  0  0  0  0
   -0.1566   -0.0430   29.3391 C   0  0  0  0  0  0  0  0  0  0  0  0
   -0.9791    0.3459   30.4505 C   0  0  0  0  0  0  0  0  0  0  0  0
   -1.9523   -0.6169   30.5614 C   0  0  0  0  0  0  0  0  0  0  0  0
   -1.7199   -1.4848   29.5343 N   0  0  0  0  0  0  0  0  0  0  0  0
   -0.6417   -1.1730   28.7887 N   0  0  0  0  0  0  0  0  0  0  0  0
    3.7142   -2.9772   30.9197 H   0  0  0  0  0  0  0  0  0  0  0  0
    5.0232   -1.9812   31.5802 H   0  0  0  0  0  0  0  0  0  0  0  0
    5.3860   -3.2359   30.3830 H   0  0  0  0  0  0  0  0  0  0  0  0
    5.4080   -0.9536   29.3583 H   0  0  0  0  0  0  0  0  0  0  0  0
    3.7517   -0.6948   29.9186 H   0  0  0  0  0  0  0  0  0  0  0  0
    2.9462   -2.5627   28.4781 H   0  0  0  0  0  0  0  0  0  0  0  0
    4.6117   -2.9405   28.0526 H   0  0  0  0  0  0  0  0  0  0  0  0
    4.9105   -0.9949   26.7741 H   0  0  0  0  0  0  0  0  0  0  0  0
    3.4219   -1.7849   26.2221 H   0  0  0  0  0  0  0  0  0  0  0  0
    3.6637    0.5779   28.0866 H   0  0  0  0  0  0  0  0  0  0  0  0
    2.2318    1.6686   26.0917 H   0  0  0  0  0  0  0  0  0  0  0  0
    3.8477    1.9685   26.5868 H   0  0  0  0  0  0  0  0  0  0  0  0
    3.4995    1.9404   24.1724 H   0  0  0  0  0  0  0  0  0  0  0  0
    6.9656   -0.1144   19.7456 H   0  0  0  0  0  0  0  0  0  0  0  0
    8.1785    1.7827   21.3860 H   0  0  0  0  0  0  0  0  0  0  0  0
    6.7178    2.6898   22.6377 H   0  0  0  0  0  0  0  0  0  0  0  0
    1.2704   -0.9539   27.6525 H   0  0  0  0  0  0  0  0  0  0  0  0
   -0.8185    1.2012   31.0918 H   0  0  0  0  0  0  0  0  0  0  0  0
   -2.7632   -0.7609   31.2593 H   0  0  0  0  0  0  0  0  0  0  0  0
   -2.2459   -2.3140   29.2717 H   0  0  0  0  0  0  0  0  0  0  0  0
  1  2  1  0
  2  3  1  0
  3  4  1  0
  4  5  1  0
  5  6  1  0
  6  7  1  0
  7  8  1  0
  8  9  2  0
  8 10  1  0
 10 11  2  0
 11 12  1  0
 12 13  2  0
 13 14  1  0
  5 15  1  0
 15 16  1  0
 16 17  2  0
 16 18  1  0
 18 19  1  0
 19 20  2  0
 20 21  1  0
 21 22  1  0
 14 10  1  0
 22 18  2  0
  1 23  1  0
  1 24  1  0
  1 25  1  0
  2 26  1  0
  2 27  1  0
  3 28  1  0
  3 29  1  0
  4 30  1  0
  4 31  1  0
  5 32  1  0
  6 33  1  0
  6 34  1  0
  7 35  1  0
 12 36  1  0
 13 37  1  0
 14 38  1  0
 15 39  1  0
 19 40  1  0
 20 41  1  0
 21 42  1  0
M  END
>  <Energy>  (77) 
219.32417056218492

>  <compound_id>  (77) 
18005

>  <target_id>  (77) 
1

>  <reference_id>  (77) 
7

>  <inspiration_ids>  (77) 
[7, 114]

>  <energy_score>  (77) 
130.85576794326795

>  <distance_score>  (77) 
11.267195503277607

>  <path>  (77) 
/opt/xchem-fragalysis-2/maxwin/BulkDock/SCRATCH/511020/C18005-P7/C18005-P7.minimised.mol

>  <scratch_subdir>  (77) 
/opt/xchem-fragalysis-2/maxwin/BulkDock/SCRATCH/511020/C18005-P7

>  <fragmenstein_runtime>  (77) 
15.611039638519287

>  <fragmenstein_outcome>  (77) 
too moved

>  <fragmenstein_mode>  (77) 
expansion

>  <fragmenstein_error>  (77) 


$$$$
C18005-P114
     RDKit          3D

 42 43  0  0  0  0  0  0  0  0999 V2000
    7.6707   -1.1805   27.9466 C   0  0  0  0  0  0  0  0  0  0  0  0
    7.5763   -1.7307   26.5290 C   0  0  0  0  0  0  0  0  0  0  0  0
    6.1372   -1.5562   25.9617 C   0  0  0  0  0  0  0  0  0  0  0  0
    5.8580   -2.2737   24.4735 C   0  0  0  0  0  0  0  0  0  0  0  0
    5.0297   -1.9223   23.0880 C   0  0  0  0  0  0  0  0  0  0  0  0
    5.8521   -2.6943   21.3971 C   0  0  0  0  0  0  0  0  0  0  0  0
    7.5983   -3.4359   21.2876 N   0  0  0  0  0  0  0  0  0  0  0  0
    8.3793   -4.2366   22.2723 C   0  0  0  0  0  0  0  0  0  0  0  0
    8.1281   -4.5351   23.3975 O   0  0  0  0  0  0  0  0  0  0  0  0
    9.6114   -4.8559   21.7871 C   0  0  0  0  0  0  0  0  0  0  0  0
    9.6477   -6.1337   21.4416 N   0  0  0  0  0  0  0  0  0  0  0  0
   10.9370   -6.5320   21.6919 C   0  0  0  0  0  0  0  0  0  0  0  0
   11.7396   -5.4694   22.0116 C   0  0  0  0  0  0  0  0  0  0  0  0
   10.8844   -4.4101   22.0829 N   0  0  0  0  0  0  0  0  0  0  0  0
    3.7191   -1.9240   24.2748 N   0  0  0  0  0  0  0  0  0  0  0  0
    3.4046   -0.9191   25.4576 C   0  0  0  0  0  0  0  0  0  0  0  0
    3.9407    0.1225   25.7583 O   0  0  0  0  0  0  0  0  0  0  0  0
    2.3093   -1.2976   26.5527 C   0  0  0  0  0  0  0  0  0  0  0  0
    2.1776   -2.4790   27.3499 C   0  0  0  0  0  0  0  0  0  0  0  0
    1.1667   -2.2778   28.2662 C   0  0  0  0  0  0  0  0  0  0  0  0
    0.7848   -0.9928   28.0753 N   0  0  0  0  0  0  0  0  0  0  0  0
    1.5208   -0.3468   27.1566 N   0  0  0  0  0  0  0  0  0  0  0  0
    7.4224   -0.1147   27.9710 H   0  0  0  0  0  0  0  0  0  0  0  0
    8.6879   -1.3008   28.3322 H   0  0  0  0  0  0  0  0  0  0  0  0
    6.9882   -1.7103   28.6187 H   0  0  0  0  0  0  0  0  0  0  0  0
    7.8863   -2.7782   26.5457 H   0  0  0  0  0  0  0  0  0  0  0  0
    8.3140   -1.2089   25.9121 H   0  0  0  0  0  0  0  0  0  0  0  0
    5.8818   -0.5092   26.0544 H   0  0  0  0  0  0  0  0  0  0  0  0
    5.4404   -1.9719   26.7074 H   0  0  0  0  0  0  0  0  0  0  0  0
    6.5509   -3.0922   24.2864 H   0  0  0  0  0  0  0  0  0  0  0  0
    5.0752   -2.9315   24.8178 H   0  0  0  0  0  0  0  0  0  0  0  0
    4.9502   -0.9448   22.6276 H   0  0  0  0  0  0  0  0  0  0  0  0
    6.3033   -1.7783   21.0181 H   0  0  0  0  0  0  0  0  0  0  0  0
    5.2854   -3.1531   20.5965 H   0  0  0  0  0  0  0  0  0  0  0  0
    8.0678   -3.4506   20.4108 H   0  0  0  0  0  0  0  0  0  0  0  0
   11.2275   -7.5717   21.6170 H   0  0  0  0  0  0  0  0  0  0  0  0
   12.7918   -5.3800   22.2378 H   0  0  0  0  0  0  0  0  0  0  0  0
   11.1328   -3.4816   22.3992 H   0  0  0  0  0  0  0  0  0  0  0  0
    3.0200   -2.6603   24.2627 H   0  0  0  0  0  0  0  0  0  0  0  0
    2.7783   -3.3544   27.2521 H   0  0  0  0  0  0  0  0  0  0  0  0
    0.7322   -2.9065   29.0283 H   0  0  0  0  0  0  0  0  0  0  0  0
    0.0768   -0.4656   28.5734 H   0  0  0  0  0  0  0  0  0  0  0  0
  1  2  1  0
  2  3  1  0
  3  4  1  0
  4  5  1  0
  5  6  1  0
  6  7  1  0
  7  8  1  0
  8  9  2  0
  8 10  1  0
 10 11  2  0
 11 12  1  0
 12 13  2  0
 13 14  1  0
  5 15  1  0
 15 16  1  0
 16 17  2  0
 16 18  1  0
 18 19  1  0
 19 20  2  0
 20 21  1  0
 21 22  1  0
 14 10  1  0
 22 18  2  0
  1 23  1  0
  1 24  1  0
  1 25  1  0
  2 26  1  0
  2 27  1  0
  3 28  1  0
  3 29  1  0
  4 30  1  0
  4 31  1  0
  5 32  1  0
  6 33  1  0
  6 34  1  0
  7 35  1  0
 12 36  1  0
 13 37  1  0
 14 38  1  0
 15 39  1  0
 19 40  1  0
 20 41  1  0
 21 42  1  0
M  END
>  <Energy>  (78) 
373.09031372358749

>  <compound_id>  (78) 
18005

>  <target_id>  (78) 
1

>  <reference_id>  (78) 
114

>  <inspiration_ids>  (78) 
[7, 114]

>  <energy_score>  (78) 
284.6219111046633

>  <distance_score>  (78) 
13.296475065315944

>  <path>  (78) 
/opt/xchem-fragalysis-2/maxwin/BulkDock/SCRATCH/511020/C18005-P114/C18005-P114.minimised.mol

>  <scratch_subdir>  (78) 
/opt/xchem-fragalysis-2/maxwin/BulkDock/SCRATCH/511020/C18005-P114

>  <fragmenstein_runtime>  (78) 
12.327439069747925

>  <fragmenstein_outcome>  (78) 
too moved

>  <fragmenstein_mode>  (78) 
expansion

>  <fragmenstein_error>  (78) 


$$$$
C18006-P7
     RDKit          3D

 45 46  0  0  0  0  0  0  0  0999 V2000
    0.0261    6.3430   26.5804 C   0  0  0  0  0  0  0  0  0  0  0  0
    0.7899    5.0452   26.8015 C   0  0  0  0  0  0  0  0  0  0  0  0
    2.1934    5.1176   26.2056 C   0  0  0  0  0  0  0  0  0  0  0  0
    3.0883    3.8954   26.4715 C   0  0  0  0  0  0  0  0  0  0  0  0
    2.5846    2.5048   26.0071 C   0  0  0  0  0  0  0  0  0  0  0  0
    2.3448    2.4968   24.4360 C   0  0  0  0  0  0  0  0  0  0  0  0
    3.4015    1.7990   23.6410 N   0  0  0  0  0  0  0  0  0  0  0  0
    3.4953    1.5014   22.1820 C   0  0  0  0  0  0  0  0  0  0  0  0
    2.6936    1.6827   21.2990 O   0  0  0  0  0  0  0  0  0  0  0  0
    5.2418    0.8601   21.7269 C   0  0  0  0  0  0  0  0  0  0  0  0
    5.9201   -0.0369   21.0583 N   0  0  0  0  0  0  0  0  0  0  0  0
    6.8074    0.3419   19.9492 C   0  0  0  0  0  0  0  0  0  0  0  0
    6.7654    1.6599   19.8287 C   0  0  0  0  0  0  0  0  0  0  0  0
    6.5624    1.8396   21.1873 N   0  0  0  0  0  0  0  0  0  0  0  0
    1.4971    1.9758   26.8873 N   0  0  0  0  0  0  0  0  0  0  0  0
    1.3299    2.0287   28.3247 C   0  0  0  0  0  0  0  0  0  0  0  0
    1.9807    2.5793   29.1662 O   0  0  0  0  0  0  0  0  0  0  0  0
    0.1370    1.2397   28.8347 C   0  0  0  0  0  0  0  0  0  0  0  0
   -0.3486    1.2537   30.1898 C   0  0  0  0  0  0  0  0  0  0  0  0
   -1.3517    0.3168   30.2626 C   0  0  0  0  0  0  0  0  0  0  0  0
   -1.3735   -0.2629   29.0304 N   0  0  0  0  0  0  0  0  0  0  0  0
   -1.9815   -1.5345   28.7075 C   0  0  0  0  0  0  0  0  0  0  0  0
   -0.5973    0.3688   28.1075 N   0  0  0  0  0  0  0  0  0  0  0  0
    0.5384    7.1861   27.0547 H   0  0  0  0  0  0  0  0  0  0  0  0
   -0.9773    6.2696   27.0114 H   0  0  0  0  0  0  0  0  0  0  0  0
   -0.0778    6.5599   25.5124 H   0  0  0  0  0  0  0  0  0  0  0  0
    0.2220    4.2308   26.3407 H   0  0  0  0  0  0  0  0  0  0  0  0
    0.8489    4.8514   27.8776 H   0  0  0  0  0  0  0  0  0  0  0  0
    2.1197    5.3066   25.1293 H   0  0  0  0  0  0  0  0  0  0  0  0
    2.7068    5.9948   26.6214 H   0  0  0  0  0  0  0  0  0  0  0  0
    3.3291    3.8670   27.5397 H   0  0  0  0  0  0  0  0  0  0  0  0
    4.0460    4.0861   25.9682 H   0  0  0  0  0  0  0  0  0  0  0  0
    3.4027    1.8025   26.2126 H   0  0  0  0  0  0  0  0  0  0  0  0
    1.3238    2.2034   24.2567 H   0  0  0  0  0  0  0  0  0  0  0  0
    2.3920    3.5154   24.0404 H   0  0  0  0  0  0  0  0  0  0  0  0
    4.2152    1.4418   24.0978 H   0  0  0  0  0  0  0  0  0  0  0  0
    7.2414   -0.4184   19.3268 H   0  0  0  0  0  0  0  0  0  0  0  0
    7.0706    2.4278   19.1402 H   0  0  0  0  0  0  0  0  0  0  0  0
    6.4261    2.7844   21.4653 H   0  0  0  0  0  0  0  0  0  0  0  0
    0.7084    1.4830   26.4812 H   0  0  0  0  0  0  0  0  0  0  0  0
    0.0427    1.8583   30.9969 H   0  0  0  0  0  0  0  0  0  0  0  0
   -1.9558   -0.0373   31.0849 H   0  0  0  0  0  0  0  0  0  0  0  0
   -2.3582   -2.0026   29.6184 H   0  0  0  0  0  0  0  0  0  0  0  0
   -2.7622   -1.3599   27.9666 H   0  0  0  0  0  0  0  0  0  0  0  0
   -1.2026   -2.1752   28.2847 H   0  0  0  0  0  0  0  0  0  0  0  0
  1  2  1  0
  2  3  1  0
  3  4  1  0
  4  5  1  0
  5  6  1  0
  6  7  1  0
  7  8  1  0
  8  9  2  0
  8 10  1  0
 10 11  2  0
 11 12  1  0
 12 13  2  0
 13 14  1  0
  5 15  1  0
 15 16  1  0
 16 17  2  0
 16 18  1  0
 18 19  1  0
 19 20  2  0
 20 21  1  0
 21 22  1  0
 21 23  1  0
 14 10  1  0
 23 18  2  0
  1 24  1  0
  1 25  1  0
  1 26  1  0
  2 27  1  0
  2 28  1  0
  3 29  1  0
  3 30  1  0
  4 31  1  0
  4 32  1  0
  5 33  1  0
  6 34  1  0
  6 35  1  0
  7 36  1  0
 12 37  1  0
 13 38  1  0
 14 39  1  0
 15 40  1  0
 19 41  1  0
 20 42  1  0
 22 43  1  0
 22 44  1  0
 22 45  1  0
M  END
>  <Energy>  (79) 
223.90874998010094

>  <compound_id>  (79) 
18006

>  <target_id>  (79) 
1

>  <reference_id>  (79) 
7

>  <inspiration_ids>  (79) 
[7, 114]

>  <energy_score>  (79) 
141.74791910635247

>  <distance_score>  (79) 
11.844246443439703

>  <path>  (79) 
/opt/xchem-fragalysis-2/maxwin/BulkDock/SCRATCH/511020/C18006-P7/C18006-P7.minimised.mol

>  <scratch_subdir>  (79) 
/opt/xchem-fragalysis-2/maxwin/BulkDock/SCRATCH/511020/C18006-P7

>  <fragmenstein_runtime>  (79) 
39.2170045375824

>  <fragmenstein_outcome>  (79) 
too moved

>  <fragmenstein_mode>  (79) 
expansion

>  <fragmenstein_error>  (79) 


$$$$
C18006-P114
     RDKit          3D

 45 46  0  0  0  0  0  0  0  0999 V2000
   -3.2340   -2.5274   24.2482 C   0  0  0  0  0  0  0  0  0  0  0  0
   -3.3435   -2.0758   26.0217 C   0  0  0  0  0  0  0  0  0  0  0  0
   -1.9986   -2.0929   27.2949 C   0  0  0  0  0  0  0  0  0  0  0  0
   -0.7732   -3.4334   27.6075 C   0  0  0  0  0  0  0  0  0  0  0  0
   -0.4000   -5.1954   27.0420 C   0  0  0  0  0  0  0  0  0  0  0  0
   -0.5367   -6.0742   25.3384 C   0  0  0  0  0  0  0  0  0  0  0  0
    0.4463   -6.0605   23.8082 N   0  0  0  0  0  0  0  0  0  0  0  0
    0.8916   -4.7855   22.7836 C   0  0  0  0  0  0  0  0  0  0  0  0
    0.6720   -3.6246   22.9449 O   0  0  0  0  0  0  0  0  0  0  0  0
    1.7060   -4.9465   21.6302 C   0  0  0  0  0  0  0  0  0  0  0  0
    2.0675   -5.6017   20.4605 N   0  0  0  0  0  0  0  0  0  0  0  0
    3.5945   -5.1293   19.9416 C   0  0  0  0  0  0  0  0  0  0  0  0
    4.1220   -4.0969   20.9013 C   0  0  0  0  0  0  0  0  0  0  0  0
    2.7462   -3.8720   21.9805 N   0  0  0  0  0  0  0  0  0  0  0  0
   -0.7385   -5.8899   28.3389 N   0  0  0  0  0  0  0  0  0  0  0  0
   -0.0663   -5.8697   29.6350 C   0  0  0  0  0  0  0  0  0  0  0  0
    0.9674   -5.3647   29.9683 O   0  0  0  0  0  0  0  0  0  0  0  0
   -0.8026   -6.4818   30.8328 C   0  0  0  0  0  0  0  0  0  0  0  0
   -0.7157   -5.8144   32.1164 C   0  0  0  0  0  0  0  0  0  0  0  0
   -1.5929   -6.4307   32.9634 C   0  0  0  0  0  0  0  0  0  0  0  0
   -2.1353   -7.4444   32.2392 N   0  0  0  0  0  0  0  0  0  0  0  0
   -3.1382   -8.3534   32.7700 C   0  0  0  0  0  0  0  0  0  0  0  0
   -1.7284   -7.4711   30.9129 N   0  0  0  0  0  0  0  0  0  0  0  0
   -2.6609   -1.9147   23.5479 H   0  0  0  0  0  0  0  0  0  0  0  0
   -4.1308   -2.7872   23.7361 H   0  0  0  0  0  0  0  0  0  0  0  0
   -2.7883   -3.5265   24.2601 H   0  0  0  0  0  0  0  0  0  0  0  0
   -3.1264   -3.0766   25.8667 H   0  0  0  0  0  0  0  0  0  0  0  0
   -4.3140   -2.1522   26.5032 H   0  0  0  0  0  0  0  0  0  0  0  0
   -1.4460   -1.1439   27.2288 H   0  0  0  0  0  0  0  0  0  0  0  0
   -2.5393   -2.0076   28.2492 H   0  0  0  0  0  0  0  0  0  0  0  0
   -0.8876   -3.5348   28.6974 H   0  0  0  0  0  0  0  0  0  0  0  0
    0.1997   -2.9192   27.5312 H   0  0  0  0  0  0  0  0  0  0  0  0
    0.6856   -5.1347   27.1105 H   0  0  0  0  0  0  0  0  0  0  0  0
   -1.5409   -5.9704   24.9504 H   0  0  0  0  0  0  0  0  0  0  0  0
   -0.4568   -7.1306   25.6227 H   0  0  0  0  0  0  0  0  0  0  0  0
    0.8360   -6.9213   23.4603 H   0  0  0  0  0  0  0  0  0  0  0  0
    4.3515   -5.3220   19.1674 H   0  0  0  0  0  0  0  0  0  0  0  0
    4.9675   -3.3547   20.8297 H   0  0  0  0  0  0  0  0  0  0  0  0
    2.6632   -3.1691   22.7203 H   0  0  0  0  0  0  0  0  0  0  0  0
   -1.6388   -6.3416   28.4406 H   0  0  0  0  0  0  0  0  0  0  0  0
   -0.0916   -4.9585   32.3430 H   0  0  0  0  0  0  0  0  0  0  0  0
   -1.8508   -6.2475   33.9981 H   0  0  0  0  0  0  0  0  0  0  0  0
   -2.9289   -8.5212   33.8301 H   0  0  0  0  0  0  0  0  0  0  0  0
   -4.1266   -7.9093   32.6492 H   0  0  0  0  0  0  0  0  0  0  0  0
   -3.0610   -9.3018   32.2357 H   0  0  0  0  0  0  0  0  0  0  0  0
  1  2  1  0
  2  3  1  0
  3  4  1  0
  4  5  1  0
  5  6  1  0
  6  7  1  0
  7  8  1  0
  8  9  2  0
  8 10  1  0
 10 11  2  0
 11 12  1  0
 12 13  2  0
 13 14  1  0
  5 15  1  0
 15 16  1  0
 16 17  2  0
 16 18  1  0
 18 19  1  0
 19 20  2  0
 20 21  1  0
 21 22  1  0
 21 23  1  0
 14 10  1  0
 23 18  2  0
  1 24  1  0
  1 25  1  0
  1 26  1  0
  2 27  1  0
  2 28  1  0
  3 29  1  0
  3 30  1  0
  4 31  1  0
  4 32  1  0
  5 33  1  0
  6 34  1  0
  6 35  1  0
  7 36  1  0
 12 37  1  0
 13 38  1  0
 14 39  1  0
 15 40  1  0
 19 41  1  0
 20 42  1  0
 22 43  1  0
 22 44  1  0
 22 45  1  0
M  END
>  <Energy>  (80) 
508.60466755869925

>  <compound_id>  (80) 
18006

>  <target_id>  (80) 
1

>  <reference_id>  (80) 
114

>  <inspiration_ids>  (80) 
[7, 114]

>  <energy_score>  (80) 
426.4438366849434

>  <distance_score>  (80) 
12.350709615309317

>  <path>  (80) 
/opt/xchem-fragalysis-2/maxwin/BulkDock/SCRATCH/511020/C18006-P114/C18006-P114.minimised.mol

>  <scratch_subdir>  (80) 
/opt/xchem-fragalysis-2/maxwin/BulkDock/SCRATCH/511020/C18006-P114

>  <fragmenstein_runtime>  (80) 
17.421285152435303

>  <fragmenstein_outcome>  (80) 
too moved

>  <fragmenstein_mode>  (80) 
expansion

>  <fragmenstein_error>  (80) 


$$$$
C18007-P7
     RDKit          3D

 42 43  0  0  0  0  0  0  0  0999 V2000
    1.7440   -3.3524   30.1385 C   0  0  0  0  0  0  0  0  0  0  0  0
    2.6473   -2.3056   29.4635 C   0  0  0  0  0  0  0  0  0  0  0  0
    1.8410   -1.1237   28.9353 N   0  0  0  0  0  0  0  0  0  0  0  0
    1.3973   -0.2940   30.0357 C   0  0  0  0  0  0  0  0  0  0  0  0
    1.9201    0.6581   30.5557 O   0  0  0  0  0  0  0  0  0  0  0  0
   -0.0069   -0.6248   30.5470 C   0  0  0  0  0  0  0  0  0  0  0  0
   -0.6916    0.0567   31.6191 C   0  0  0  0  0  0  0  0  0  0  0  0
   -1.9267   -0.5365   31.7433 C   0  0  0  0  0  0  0  0  0  0  0  0
   -1.9475   -1.4988   30.7849 N   0  0  0  0  0  0  0  0  0  0  0  0
   -0.8192   -1.5893   30.0651 N   0  0  0  0  0  0  0  0  0  0  0  0
    3.1095   -0.9823   27.9662 C   0  0  0  0  0  0  0  0  0  0  0  0
    4.5470   -0.7790   28.5014 C   0  0  0  0  0  0  0  0  0  0  0  0
    2.9722   -1.7878   26.6221 C   0  0  0  0  0  0  0  0  0  0  0  0
    3.8995   -1.6205   25.5003 N   0  0  0  0  0  0  0  0  0  0  0  0
    3.8452   -2.1471   24.1059 C   0  0  0  0  0  0  0  0  0  0  0  0
    3.0741   -2.8958   23.5899 O   0  0  0  0  0  0  0  0  0  0  0  0
    5.0579   -1.6288   23.2897 C   0  0  0  0  0  0  0  0  0  0  0  0
    5.8037   -1.6806   21.4952 C   0  0  0  0  0  0  0  0  0  0  0  0
    6.5492   -0.4112   20.8450 N   0  0  0  0  0  0  0  0  0  0  0  0
    7.4809   -0.7152   19.9656 C   0  0  0  0  0  0  0  0  0  0  0  0
    7.9033   -1.8493   20.4808 C   0  0  0  0  0  0  0  0  0  0  0  0
    6.7199   -2.5583   20.8348 N   0  0  0  0  0  0  0  0  0  0  0  0
    1.3078   -2.9781   31.0679 H   0  0  0  0  0  0  0  0  0  0  0  0
    2.3354   -4.2366   30.4020 H   0  0  0  0  0  0  0  0  0  0  0  0
    0.9430   -3.6725   29.4649 H   0  0  0  0  0  0  0  0  0  0  0  0
    3.3257   -1.9614   30.2580 H   0  0  0  0  0  0  0  0  0  0  0  0
    3.1826   -2.9318   28.7431 H   0  0  0  0  0  0  0  0  0  0  0  0
   -0.2964    0.8812   32.1973 H   0  0  0  0  0  0  0  0  0  0  0  0
   -2.7649   -0.3493   32.3970 H   0  0  0  0  0  0  0  0  0  0  0  0
   -2.6980   -2.1351   30.5476 H   0  0  0  0  0  0  0  0  0  0  0  0
    2.8972    0.0464   27.6256 H   0  0  0  0  0  0  0  0  0  0  0  0
    5.1610   -0.2706   27.7496 H   0  0  0  0  0  0  0  0  0  0  0  0
    4.5461   -0.1542   29.4008 H   0  0  0  0  0  0  0  0  0  0  0  0
    5.0511   -1.7238   28.7291 H   0  0  0  0  0  0  0  0  0  0  0  0
    2.8814   -2.8578   26.7884 H   0  0  0  0  0  0  0  0  0  0  0  0
    2.0085   -1.4677   26.2606 H   0  0  0  0  0  0  0  0  0  0  0  0
    4.6437   -0.9386   25.5700 H   0  0  0  0  0  0  0  0  0  0  0  0
    5.0328   -0.5747   23.5855 H   0  0  0  0  0  0  0  0  0  0  0  0
    5.7572   -2.0943   23.9822 H   0  0  0  0  0  0  0  0  0  0  0  0
    7.7140   -0.1022   19.1310 H   0  0  0  0  0  0  0  0  0  0  0  0
    8.6774   -2.5737   20.3675 H   0  0  0  0  0  0  0  0  0  0  0  0
    7.1510   -3.3432   21.2191 H   0  0  0  0  0  0  0  0  0  0  0  0
  1  2  1  0
  2  3  1  0
  3  4  1  0
  4  5  2  0
  4  6  1  0
  6  7  1  0
  7  8  2  0
  8  9  1  0
  9 10  1  0
  3 11  1  0
 11 12  1  0
 11 13  1  0
 13 14  1  0
 14 15  1  0
 15 16  2  0
 15 17  1  0
 17 18  1  0
 18 19  2  0
 19 20  1  0
 20 21  2  0
 21 22  1  0
 10  6  2  0
 22 18  1  0
  1 23  1  0
  1 24  1  0
  1 25  1  0
  2 26  1  0
  2 27  1  0
  7 28  1  0
  8 29  1  0
  9 30  1  0
 11 31  1  0
 12 32  1  0
 12 33  1  0
 12 34  1  0
 13 35  1  0
 13 36  1  0
 14 37  1  0
 17 38  1  0
 17 39  1  0
 20 40  1  0
 21 41  1  0
 22 42  1  0
M  END
>  <Energy>  (81) 
323.27046121406312

>  <compound_id>  (81) 
18007

>  <target_id>  (81) 
1

>  <reference_id>  (81) 
7

>  <inspiration_ids>  (81) 
[7, 114]

>  <energy_score>  (81) 
226.4051506911867

>  <distance_score>  (81) 
10.405972835767617

>  <path>  (81) 
/opt/xchem-fragalysis-2/maxwin/BulkDock/SCRATCH/511020/C18007-P7/C18007-P7.minimised.mol

>  <scratch_subdir>  (81) 
/opt/xchem-fragalysis-2/maxwin/BulkDock/SCRATCH/511020/C18007-P7

>  <fragmenstein_runtime>  (81) 
11.885409832000732

>  <fragmenstein_outcome>  (81) 
too moved

>  <fragmenstein_mode>  (81) 
expansion

>  <fragmenstein_error>  (81) 


$$$$
C18007-P114
     RDKit          3D

 42 43  0  0  0  0  0  0  0  0999 V2000
   -7.7739   -3.2389   29.0539 C   0  0  0  0  0  0  0  0  0  0  0  0
   -6.2676   -3.6491   28.8409 C   0  0  0  0  0  0  0  0  0  0  0  0
   -5.3070   -2.9304   29.6718 N   0  0  0  0  0  0  0  0  0  0  0  0
   -6.2072   -2.0255   30.9924 C   0  0  0  0  0  0  0  0  0  0  0  0
   -6.6542   -0.8710   30.9777 O   0  0  0  0  0  0  0  0  0  0  0  0
   -6.3658   -2.5810   32.3178 C   0  0  0  0  0  0  0  0  0  0  0  0
   -7.2521   -1.7831   33.1828 C   0  0  0  0  0  0  0  0  0  0  0  0
   -6.6718   -1.5868   34.3962 C   0  0  0  0  0  0  0  0  0  0  0  0
   -5.5212   -2.2739   34.2879 N   0  0  0  0  0  0  0  0  0  0  0  0
   -5.2724   -2.8262   33.0742 N   0  0  0  0  0  0  0  0  0  0  0  0
   -4.6016   -2.3004   27.8419 C   0  0  0  0  0  0  0  0  0  0  0  0
   -2.8999   -1.9705   28.4114 C   0  0  0  0  0  0  0  0  0  0  0  0
   -3.9785   -2.1924   25.8019 C   0  0  0  0  0  0  0  0  0  0  0  0
   -2.6943   -2.8955   24.3941 N   0  0  0  0  0  0  0  0  0  0  0  0
   -1.8463   -2.0538   22.8701 C   0  0  0  0  0  0  0  0  0  0  0  0
   -2.2765   -1.0251   22.7104 O   0  0  0  0  0  0  0  0  0  0  0  0
   -0.1930   -2.2704   21.5759 C   0  0  0  0  0  0  0  0  0  0  0  0
    0.5223   -1.0769   19.8453 C   0  0  0  0  0  0  0  0  0  0  0  0
    1.7010   -0.8246   19.3910 N   0  0  0  0  0  0  0  0  0  0  0  0
    1.8624   -0.8840   18.0687 C   0  0  0  0  0  0  0  0  0  0  0  0
    0.7569   -0.7086   17.3404 C   0  0  0  0  0  0  0  0  0  0  0  0
   -0.0322   -1.2826   18.2536 N   0  0  0  0  0  0  0  0  0  0  0  0
   -7.9782   -2.2436   28.6254 H   0  0  0  0  0  0  0  0  0  0  0  0
   -8.0912   -3.1314   30.0776 H   0  0  0  0  0  0  0  0  0  0  0  0
   -8.4282   -3.9262   28.5065 H   0  0  0  0  0  0  0  0  0  0  0  0
   -6.2186   -4.7271   28.8974 H   0  0  0  0  0  0  0  0  0  0  0  0
   -6.3880   -3.0593   27.9612 H   0  0  0  0  0  0  0  0  0  0  0  0
   -8.0981   -1.2659   32.8111 H   0  0  0  0  0  0  0  0  0  0  0  0
   -6.9495   -1.0068   35.2643 H   0  0  0  0  0  0  0  0  0  0  0  0
   -4.8184   -2.3681   35.0102 H   0  0  0  0  0  0  0  0  0  0  0  0
   -4.7034   -3.3018   27.5900 H   0  0  0  0  0  0  0  0  0  0  0  0
   -2.7565   -2.3307   29.4380 H   0  0  0  0  0  0  0  0  0  0  0  0
   -2.0469   -2.3686   27.8572 H   0  0  0  0  0  0  0  0  0  0  0  0
   -2.7264   -0.8865   28.3301 H   0  0  0  0  0  0  0  0  0  0  0  0
   -3.7895   -1.1607   25.5397 H   0  0  0  0  0  0  0  0  0  0  0  0
   -3.0577   -2.1776   26.3417 H   0  0  0  0  0  0  0  0  0  0  0  0
   -2.3580   -3.8330   24.4538 H   0  0  0  0  0  0  0  0  0  0  0  0
    0.4658   -2.0979   22.4318 H   0  0  0  0  0  0  0  0  0  0  0  0
    0.4478   -3.2117   21.4012 H   0  0  0  0  0  0  0  0  0  0  0  0
    2.8939   -1.0641   17.8739 H   0  0  0  0  0  0  0  0  0  0  0  0
    0.5194   -0.6526   16.2900 H   0  0  0  0  0  0  0  0  0  0  0  0
   -0.8611   -1.8414   18.1125 H   0  0  0  0  0  0  0  0  0  0  0  0
  1  2  1  0
  2  3  1  0
  3  4  1  0
  4  5  2  0
  4  6  1  0
  6  7  1  0
  7  8  2  0
  8  9  1  0
  9 10  1  0
  3 11  1  0
 11 12  1  0
 11 13  1  0
 13 14  1  0
 14 15  1  0
 15 16  2  0
 15 17  1  0
 17 18  1  0
 18 19  2  0
 19 20  1  0
 20 21  2  0
 21 22  1  0
 10  6  2  0
 22 18  1  0
  1 23  1  0
  1 24  1  0
  1 25  1  0
  2 26  1  0
  2 27  1  0
  7 28  1  0
  8 29  1  0
  9 30  1  0
 11 31  1  0
 12 32  1  0
 12 33  1  0
 12 34  1  0
 13 35  1  0
 13 36  1  0
 14 37  1  0
 17 38  1  0
 17 39  1  0
 20 40  1  0
 21 41  1  0
 22 42  1  0
M  END
>  <Energy>  (82) 
1157.7340848548763

>  <compound_id>  (82) 
18007

>  <target_id>  (82) 
1

>  <reference_id>  (82) 
114

>  <inspiration_ids>  (82) 
[7, 114]

>  <energy_score>  (82) 
1060.8687743319865

>  <distance_score>  (82) 
9.46199173354739

>  <path>  (82) 
/opt/xchem-fragalysis-2/maxwin/BulkDock/SCRATCH/511020/C18007-P114/C18007-P114.minimised.mol

>  <scratch_subdir>  (82) 
/opt/xchem-fragalysis-2/maxwin/BulkDock/SCRATCH/511020/C18007-P114

>  <fragmenstein_runtime>  (82) 
11.724653244018555

>  <fragmenstein_outcome>  (82) 
too moved

>  <fragmenstein_mode>  (82) 
expansion

>  <fragmenstein_error>  (82) 


$$$$
C18008-P7
     RDKit          3D

 45 46  0  0  0  0  0  0  0  0999 V2000
    1.4401   -2.5589   28.1419 C   0  0  0  0  0  0  0  0  0  0  0  0
    2.3269   -1.5009   27.4656 C   0  0  0  0  0  0  0  0  0  0  0  0
    2.1444   -0.1107   27.9530 N   0  0  0  0  0  0  0  0  0  0  0  0
    0.7187    0.2452   27.9512 C   0  0  0  0  0  0  0  0  0  0  0  0
    0.0442    0.7597   27.0932 O   0  0  0  0  0  0  0  0  0  0  0  0
   -0.1236    0.0123   29.2468 C   0  0  0  0  0  0  0  0  0  0  0  0
   -1.4248    0.6300   29.4260 C   0  0  0  0  0  0  0  0  0  0  0  0
   -1.9730    0.1188   30.5742 C   0  0  0  0  0  0  0  0  0  0  0  0
   -1.0668   -0.7867   31.0239 N   0  0  0  0  0  0  0  0  0  0  0  0
   -1.2879   -1.6917   32.1372 C   0  0  0  0  0  0  0  0  0  0  0  0
    0.0907   -0.8195   30.2993 N   0  0  0  0  0  0  0  0  0  0  0  0
    3.3625    0.1933   26.8014 C   0  0  0  0  0  0  0  0  0  0  0  0
    4.1406    1.3314   27.4975 C   0  0  0  0  0  0  0  0  0  0  0  0
    4.4955   -0.7629   26.0776 C   0  0  0  0  0  0  0  0  0  0  0  0
    4.9439   -0.6193   24.6397 N   0  0  0  0  0  0  0  0  0  0  0  0
    4.7269   -1.5258   23.4080 C   0  0  0  0  0  0  0  0  0  0  0  0
    4.0628   -2.4978   23.3828 O   0  0  0  0  0  0  0  0  0  0  0  0
    5.6887   -1.2999   21.6232 C   0  0  0  0  0  0  0  0  0  0  0  0
    6.8444   -0.3740   20.2278 C   0  0  0  0  0  0  0  0  0  0  0  0
    6.1936    0.1189   18.9319 N   0  0  0  0  0  0  0  0  0  0  0  0
    6.7522    0.5863   17.8500 C   0  0  0  0  0  0  0  0  0  0  0  0
    7.9087    0.0110   18.0143 C   0  0  0  0  0  0  0  0  0  0  0  0
    7.9397   -0.6519   19.4467 N   0  0  0  0  0  0  0  0  0  0  0  0
    1.6175   -2.5853   29.2207 H   0  0  0  0  0  0  0  0  0  0  0  0
    1.6898   -3.5513   27.7560 H   0  0  0  0  0  0  0  0  0  0  0  0
    0.3761   -2.3979   27.9539 H   0  0  0  0  0  0  0  0  0  0  0  0
    3.3164   -1.8377   27.8010 H   0  0  0  0  0  0  0  0  0  0  0  0
    2.1355   -1.5919   26.4012 H   0  0  0  0  0  0  0  0  0  0  0  0
   -1.8845    1.3352   28.7454 H   0  0  0  0  0  0  0  0  0  0  0  0
   -2.9216    0.2845   31.0592 H   0  0  0  0  0  0  0  0  0  0  0  0
   -2.2746   -1.5074   32.5693 H   0  0  0  0  0  0  0  0  0  0  0  0
   -0.5086   -1.5073   32.8805 H   0  0  0  0  0  0  0  0  0  0  0  0
   -1.2272   -2.7146   31.7573 H   0  0  0  0  0  0  0  0  0  0  0  0
    2.8145    0.6731   25.9850 H   0  0  0  0  0  0  0  0  0  0  0  0
    4.9397    1.7324   26.8735 H   0  0  0  0  0  0  0  0  0  0  0  0
    4.5923    0.9681   28.4274 H   0  0  0  0  0  0  0  0  0  0  0  0
    3.4694    2.1575   27.7572 H   0  0  0  0  0  0  0  0  0  0  0  0
    4.1875   -1.8096   26.0769 H   0  0  0  0  0  0  0  0  0  0  0  0
    5.4141   -0.7211   26.6747 H   0  0  0  0  0  0  0  0  0  0  0  0
    5.4723    0.1717   24.3599 H   0  0  0  0  0  0  0  0  0  0  0  0
    5.0615   -0.3577   21.5809 H   0  0  0  0  0  0  0  0  0  0  0  0
    5.6310   -2.3277   21.1960 H   0  0  0  0  0  0  0  0  0  0  0  0
    6.2589    1.1409   17.0757 H   0  0  0  0  0  0  0  0  0  0  0  0
    8.7068    0.0131   17.2801 H   0  0  0  0  0  0  0  0  0  0  0  0
    8.6405   -1.3104   19.6982 H   0  0  0  0  0  0  0  0  0  0  0  0
  1  2  1  0
  2  3  1  0
  3  4  1  0
  4  5  2  0
  4  6  1  0
  6  7  1  0
  7  8  2  0
  8  9  1  0
  9 10  1  0
  9 11  1  0
  3 12  1  0
 12 13  1  0
 12 14  1  0
 14 15  1  0
 15 16  1  0
 16 17  2  0
 16 18  1  0
 18 19  1  0
 19 20  2  0
 20 21  1  0
 21 22  2  0
 22 23  1  0
 11  6  2  0
 23 19  1  0
  1 24  1  0
  1 25  1  0
  1 26  1  0
  2 27  1  0
  2 28  1  0
  7 29  1  0
  8 30  1  0
 10 31  1  0
 10 32  1  0
 10 33  1  0
 12 34  1  0
 13 35  1  0
 13 36  1  0
 13 37  1  0
 14 38  1  0
 14 39  1  0
 15 40  1  0
 18 41  1  0
 18 42  1  0
 21 43  1  0
 22 44  1  0
 23 45  1  0
M  END
>  <Energy>  (83) 
496.07302748937428

>  <compound_id>  (83) 
18008

>  <target_id>  (83) 
1

>  <reference_id>  (83) 
7

>  <inspiration_ids>  (83) 
[7, 114]

>  <energy_score>  (83) 
404.5974008188073

>  <distance_score>  (83) 
10.744998079753675

>  <path>  (83) 
/opt/xchem-fragalysis-2/maxwin/BulkDock/SCRATCH/511020/C18008-P7/C18008-P7.minimised.mol

>  <scratch_subdir>  (83) 
/opt/xchem-fragalysis-2/maxwin/BulkDock/SCRATCH/511020/C18008-P7

>  <fragmenstein_runtime>  (83) 
11.799864053726196

>  <fragmenstein_outcome>  (83) 
too moved

>  <fragmenstein_mode>  (83) 
expansion

>  <fragmenstein_error>  (83) 


$$$$
C18008-P114
     RDKit          3D

 45 46  0  0  0  0  0  0  0  0999 V2000
    2.3639   -2.7862   27.1319 C   0  0  0  0  0  0  0  0  0  0  0  0
    3.2919   -2.1396   26.0802 C   0  0  0  0  0  0  0  0  0  0  0  0
    3.9674   -1.0659   26.7648 N   0  0  0  0  0  0  0  0  0  0  0  0
    3.0398    0.0673   26.9876 C   0  0  0  0  0  0  0  0  0  0  0  0
    2.8085    1.0338   26.2996 O   0  0  0  0  0  0  0  0  0  0  0  0
    2.0671    0.0397   28.2562 C   0  0  0  0  0  0  0  0  0  0  0  0
    0.9924    1.0079   28.4156 C   0  0  0  0  0  0  0  0  0  0  0  0
    0.1834    0.5803   29.4411 C   0  0  0  0  0  0  0  0  0  0  0  0
    0.7447   -0.5809   29.8702 N   0  0  0  0  0  0  0  0  0  0  0  0
    0.1511   -1.4835   30.8454 C   0  0  0  0  0  0  0  0  0  0  0  0
    1.9316   -0.8764   29.2568 N   0  0  0  0  0  0  0  0  0  0  0  0
    5.1228   -1.3365   25.5223 C   0  0  0  0  0  0  0  0  0  0  0  0
    6.4189   -1.4823   26.3887 C   0  0  0  0  0  0  0  0  0  0  0  0
    5.1012   -1.9193   23.6207 C   0  0  0  0  0  0  0  0  0  0  0  0
    5.5247   -1.0148   21.9621 N   0  0  0  0  0  0  0  0  0  0  0  0
    6.8708   -1.3153   20.6985 C   0  0  0  0  0  0  0  0  0  0  0  0
    7.7128   -2.2117   20.6317 O   0  0  0  0  0  0  0  0  0  0  0  0
    7.0782   -0.0313   19.4191 C   0  0  0  0  0  0  0  0  0  0  0  0
    7.6512    0.2447   17.8809 C   0  0  0  0  0  0  0  0  0  0  0  0
    8.6652   -0.2856   17.1970 N   0  0  0  0  0  0  0  0  0  0  0  0
    9.0800    0.6126   16.2512 C   0  0  0  0  0  0  0  0  0  0  0  0
    8.4045    1.7859   16.4226 C   0  0  0  0  0  0  0  0  0  0  0  0
    7.4184    1.5041   17.3287 N   0  0  0  0  0  0  0  0  0  0  0  0
    2.8815   -2.9052   28.0902 H   0  0  0  0  0  0  0  0  0  0  0  0
    2.0214   -3.7804   26.8745 H   0  0  0  0  0  0  0  0  0  0  0  0
    1.4464   -2.2131   27.2693 H   0  0  0  0  0  0  0  0  0  0  0  0
    3.8970   -2.9769   25.7450 H   0  0  0  0  0  0  0  0  0  0  0  0
    2.7900   -1.6792   25.2443 H   0  0  0  0  0  0  0  0  0  0  0  0
    0.8275    1.8677   27.7802 H   0  0  0  0  0  0  0  0  0  0  0  0
   -0.7366    0.9744   29.8480 H   0  0  0  0  0  0  0  0  0  0  0  0
   -0.0281   -2.4407   30.3497 H   0  0  0  0  0  0  0  0  0  0  0  0
   -0.7889   -1.0602   31.2071 H   0  0  0  0  0  0  0  0  0  0  0  0
    0.8591   -1.5983   31.6695 H   0  0  0  0  0  0  0  0  0  0  0  0
    5.0407   -0.2554   25.3854 H   0  0  0  0  0  0  0  0  0  0  0  0
    6.6905   -0.5104   26.8235 H   0  0  0  0  0  0  0  0  0  0  0  0
    7.2912   -1.8666   25.8643 H   0  0  0  0  0  0  0  0  0  0  0  0
    6.2411   -2.1002   27.2773 H   0  0  0  0  0  0  0  0  0  0  0  0
    4.2761   -1.2656   23.6949 H   0  0  0  0  0  0  0  0  0  0  0  0
    4.2137   -2.5544   23.4809 H   0  0  0  0  0  0  0  0  0  0  0  0
    5.0447   -0.1356   21.7791 H   0  0  0  0  0  0  0  0  0  0  0  0
    7.4645    0.7867   20.0273 H   0  0  0  0  0  0  0  0  0  0  0  0
    6.1435    0.2192   18.9820 H   0  0  0  0  0  0  0  0  0  0  0  0
    9.8767    0.3825   15.5538 H   0  0  0  0  0  0  0  0  0  0  0  0
    8.4857    2.7503   15.9415 H   0  0  0  0  0  0  0  0  0  0  0  0
    6.7451    2.1752   17.6633 H   0  0  0  0  0  0  0  0  0  0  0  0
  1  2  1  0
  2  3  1  0
  3  4  1  0
  4  5  2  0
  4  6  1  0
  6  7  1  0
  7  8  2  0
  8  9  1  0
  9 10  1  0
  9 11  1  0
  3 12  1  0
 12 13  1  0
 12 14  1  0
 14 15  1  0
 15 16  1  0
 16 17  2  0
 16 18  1  0
 18 19  1  0
 19 20  2  0
 20 21  1  0
 21 22  2  0
 22 23  1  0
 11  6  2  0
 23 19  1  0
  1 24  1  0
  1 25  1  0
  1 26  1  0
  2 27  1  0
  2 28  1  0
  7 29  1  0
  8 30  1  0
 10 31  1  0
 10 32  1  0
 10 33  1  0
 12 34  1  0
 13 35  1  0
 13 36  1  0
 13 37  1  0
 14 38  1  0
 14 39  1  0
 15 40  1  0
 18 41  1  0
 18 42  1  0
 21 43  1  0
 22 44  1  0
 23 45  1  0
M  END
>  <Energy>  (84) 
486.50843640244022

>  <compound_id>  (84) 
18008

>  <target_id>  (84) 
1

>  <reference_id>  (84) 
114

>  <inspiration_ids>  (84) 
[7, 114]

>  <energy_score>  (84) 
395.0328097318775

>  <distance_score>  (84) 
12.045905819675582

>  <path>  (84) 
/opt/xchem-fragalysis-2/maxwin/BulkDock/SCRATCH/511020/C18008-P114/C18008-P114.minimised.mol

>  <scratch_subdir>  (84) 
/opt/xchem-fragalysis-2/maxwin/BulkDock/SCRATCH/511020/C18008-P114

>  <fragmenstein_runtime>  (84) 
10.646287679672241

>  <fragmenstein_outcome>  (84) 
too moved

>  <fragmenstein_mode>  (84) 
expansion

>  <fragmenstein_error>  (84) 


$$$$
C18009-P7
     RDKit          3D

 44 45  0  0  0  0  0  0  0  0999 V2000
   -0.4442   -6.3851   31.7798 C   0  0  0  0  0  0  0  0  0  0  0  0
    0.1013   -5.9248   30.5505 O   0  0  0  0  0  0  0  0  0  0  0  0
    0.1153   -4.4937   30.4649 C   0  0  0  0  0  0  0  0  0  0  0  0
    1.1600   -4.0852   29.4015 C   0  0  0  0  0  0  0  0  0  0  0  0
    1.2360   -2.5719   29.0859 N   0  0  0  0  0  0  0  0  0  0  0  0
    2.4812   -3.0424   28.2402 C   0  0  0  0  0  0  0  0  0  0  0  0
    3.2992   -1.9931   27.4547 C   0  0  0  0  0  0  0  0  0  0  0  0
    4.3397   -1.3181   27.9226 N   0  0  0  0  0  0  0  0  0  0  0  0
    5.0535   -0.8782   26.8356 C   0  0  0  0  0  0  0  0  0  0  0  0
    4.4589   -1.2906   25.6758 C   0  0  0  0  0  0  0  0  0  0  0  0
    3.3189   -1.9379   26.0696 N   0  0  0  0  0  0  0  0  0  0  0  0
    1.1672   -1.7789   30.3500 C   0  0  0  0  0  0  0  0  0  0  0  0
    2.0305   -1.3977   31.0520 O   0  0  0  0  0  0  0  0  0  0  0  0
   -0.3181   -1.6021   30.4602 N   0  0  0  0  0  0  0  0  0  0  0  0
   -1.1287   -0.8176   31.4227 C   0  0  0  0  0  0  0  0  0  0  0  0
   -1.3847    0.5569   30.8096 C   0  0  0  0  0  0  0  0  0  0  0  0
   -2.4216   -1.4610   31.9994 C   0  0  0  0  0  0  0  0  0  0  0  0
   -2.6331   -2.8088   32.3977 C   0  0  0  0  0  0  0  0  0  0  0  0
   -3.8776   -2.8601   32.9846 C   0  0  0  0  0  0  0  0  0  0  0  0
   -4.3506   -1.5858   32.9585 N   0  0  0  0  0  0  0  0  0  0  0  0
   -5.6210   -1.1417   33.5001 C   0  0  0  0  0  0  0  0  0  0  0  0
   -3.4964   -0.7148   32.3662 N   0  0  0  0  0  0  0  0  0  0  0  0
   -1.4670   -6.0212   31.9093 H   0  0  0  0  0  0  0  0  0  0  0  0
    0.1798   -6.0623   32.6186 H   0  0  0  0  0  0  0  0  0  0  0  0
   -0.4621   -7.4779   31.7600 H   0  0  0  0  0  0  0  0  0  0  0  0
    0.3800   -4.0683   31.4392 H   0  0  0  0  0  0  0  0  0  0  0  0
   -0.8820   -4.1594   30.1720 H   0  0  0  0  0  0  0  0  0  0  0  0
    0.8655   -4.6478   28.5017 H   0  0  0  0  0  0  0  0  0  0  0  0
    2.0854   -4.4951   29.8372 H   0  0  0  0  0  0  0  0  0  0  0  0
    3.2655   -3.4260   28.9136 H   0  0  0  0  0  0  0  0  0  0  0  0
    2.1981   -3.7742   27.4694 H   0  0  0  0  0  0  0  0  0  0  0  0
    5.9579   -0.2999   26.9614 H   0  0  0  0  0  0  0  0  0  0  0  0
    4.7082   -1.1505   24.6358 H   0  0  0  0  0  0  0  0  0  0  0  0
    2.6313   -2.3501   25.4469 H   0  0  0  0  0  0  0  0  0  0  0  0
   -0.7618   -1.9893   29.6378 H   0  0  0  0  0  0  0  0  0  0  0  0
   -0.4674   -0.6662   32.2866 H   0  0  0  0  0  0  0  0  0  0  0  0
   -2.0789    0.4918   29.9641 H   0  0  0  0  0  0  0  0  0  0  0  0
   -0.4553    1.0073   30.4435 H   0  0  0  0  0  0  0  0  0  0  0  0
   -1.8101    1.2351   31.5538 H   0  0  0  0  0  0  0  0  0  0  0  0
   -1.9396   -3.6292   32.3052 H   0  0  0  0  0  0  0  0  0  0  0  0
   -4.4278   -3.6728   33.4376 H   0  0  0  0  0  0  0  0  0  0  0  0
   -5.8400   -1.7192   34.4012 H   0  0  0  0  0  0  0  0  0  0  0  0
   -6.3871   -1.3040   32.7386 H   0  0  0  0  0  0  0  0  0  0  0  0
   -5.5460   -0.0801   33.7484 H   0  0  0  0  0  0  0  0  0  0  0  0
  1  2  1  0
  2  3  1  0
  3  4  1  0
  4  5  1  0
  5  6  1  0
  6  7  1  0
  7  8  2  0
  8  9  1  0
  9 10  2  0
 10 11  1  0
  5 12  1  0
 12 13  2  0
 12 14  1  0
 14 15  1  0
 15 16  1  0
 15 17  1  0
 17 18  1  0
 18 19  2  0
 19 20  1  0
 20 21  1  0
 20 22  1  0
 11  7  1  0
 22 17  2  0
  1 23  1  0
  1 24  1  0
  1 25  1  0
  3 26  1  0
  3 27  1  0
  4 28  1  0
  4 29  1  0
  6 30  1  0
  6 31  1  0
  9 32  1  0
 10 33  1  0
 11 34  1  0
 14 35  1  0
 15 36  1  0
 16 37  1  0
 16 38  1  0
 16 39  1  0
 18 40  1  0
 19 41  1  0
 21 42  1  0
 21 43  1  0
 21 44  1  0
M  END
>  <Energy>  (85) 
64.311006004581174

>  <compound_id>  (85) 
18009

>  <target_id>  (85) 
1

>  <reference_id>  (85) 
7

>  <inspiration_ids>  (85) 
[7, 114]

>  <energy_score>  (85) 
70.6884560426389

>  <distance_score>  (85) 
11.607389070245418

>  <path>  (85) 
/opt/xchem-fragalysis-2/maxwin/BulkDock/SCRATCH/511020/C18009-P7/C18009-P7.minimised.mol

>  <scratch_subdir>  (85) 
/opt/xchem-fragalysis-2/maxwin/BulkDock/SCRATCH/511020/C18009-P7

>  <fragmenstein_runtime>  (85) 
19.34441089630127

>  <fragmenstein_outcome>  (85) 
too moved

>  <fragmenstein_mode>  (85) 
expansion

>  <fragmenstein_error>  (85) 


$$$$
C18009-P114
     RDKit          3D

 44 45  0  0  0  0  0  0  0  0999 V2000
    1.5910   -6.2022   27.8956 C   0  0  0  0  0  0  0  0  0  0  0  0
    1.7932   -4.8105   28.1006 O   0  0  0  0  0  0  0  0  0  0  0  0
    1.1505   -4.3506   29.2892 C   0  0  0  0  0  0  0  0  0  0  0  0
    1.5258   -2.8842   29.6225 C   0  0  0  0  0  0  0  0  0  0  0  0
    0.5548   -1.8093   29.1393 N   0  0  0  0  0  0  0  0  0  0  0  0
    1.4184   -1.9161   27.8530 C   0  0  0  0  0  0  0  0  0  0  0  0
    2.9046   -1.7180   27.4872 C   0  0  0  0  0  0  0  0  0  0  0  0
    3.9475   -1.2939   28.1799 N   0  0  0  0  0  0  0  0  0  0  0  0
    5.0382   -1.3589   27.3320 C   0  0  0  0  0  0  0  0  0  0  0  0
    4.6726   -1.8271   26.0979 C   0  0  0  0  0  0  0  0  0  0  0  0
    3.3223   -2.0053   26.1876 N   0  0  0  0  0  0  0  0  0  0  0  0
    0.4557   -0.7310   30.1400 C   0  0  0  0  0  0  0  0  0  0  0  0
    1.0743    0.2645   30.2474 O   0  0  0  0  0  0  0  0  0  0  0  0
   -0.7279   -1.2258   30.9182 N   0  0  0  0  0  0  0  0  0  0  0  0
   -1.4056   -0.6610   32.1071 C   0  0  0  0  0  0  0  0  0  0  0  0
   -1.5340    0.8552   31.9634 C   0  0  0  0  0  0  0  0  0  0  0  0
   -2.7665   -1.3196   32.4757 C   0  0  0  0  0  0  0  0  0  0  0  0
   -3.0260   -2.7002   32.7016 C   0  0  0  0  0  0  0  0  0  0  0  0
   -4.3264   -2.7841   33.1477 C   0  0  0  0  0  0  0  0  0  0  0  0
   -4.7914   -1.5062   33.1819 N   0  0  0  0  0  0  0  0  0  0  0  0
   -6.1165   -1.0918   33.5985 C   0  0  0  0  0  0  0  0  0  0  0  0
   -3.8732   -0.5967   32.7805 N   0  0  0  0  0  0  0  0  0  0  0  0
    2.0894   -6.4888   26.9657 H   0  0  0  0  0  0  0  0  0  0  0  0
    0.5233   -6.4233   27.8029 H   0  0  0  0  0  0  0  0  0  0  0  0
    2.0268   -6.7788   28.7170 H   0  0  0  0  0  0  0  0  0  0  0  0
    1.4764   -4.9844   30.1232 H   0  0  0  0  0  0  0  0  0  0  0  0
    0.0641   -4.4511   29.1813 H   0  0  0  0  0  0  0  0  0  0  0  0
    1.3589   -2.8605   30.7132 H   0  0  0  0  0  0  0  0  0  0  0  0
    2.5974   -2.6602   29.6070 H   0  0  0  0  0  0  0  0  0  0  0  0
    0.9828   -1.0562   27.3193 H   0  0  0  0  0  0  0  0  0  0  0  0
    1.0231   -2.7703   27.3041 H   0  0  0  0  0  0  0  0  0  0  0  0
    6.0232   -1.0654   27.6696 H   0  0  0  0  0  0  0  0  0  0  0  0
    5.2147   -2.0142   25.1845 H   0  0  0  0  0  0  0  0  0  0  0  0
    2.7062   -2.2947   25.4335 H   0  0  0  0  0  0  0  0  0  0  0  0
   -1.0616   -2.0844   30.5062 H   0  0  0  0  0  0  0  0  0  0  0  0
   -0.7260   -0.8615   32.9453 H   0  0  0  0  0  0  0  0  0  0  0  0
   -2.0207    1.3040   32.8358 H   0  0  0  0  0  0  0  0  0  0  0  0
   -0.5555    1.3348   31.8652 H   0  0  0  0  0  0  0  0  0  0  0  0
   -2.1174    1.1043   31.0713 H   0  0  0  0  0  0  0  0  0  0  0  0
   -2.3302   -3.5199   32.5885 H   0  0  0  0  0  0  0  0  0  0  0  0
   -4.9288   -3.6274   33.4542 H   0  0  0  0  0  0  0  0  0  0  0  0
   -6.7797   -1.1702   32.7339 H   0  0  0  0  0  0  0  0  0  0  0  0
   -6.4520   -1.7441   34.4069 H   0  0  0  0  0  0  0  0  0  0  0  0
   -6.0690   -0.0588   33.9520 H   0  0  0  0  0  0  0  0  0  0  0  0
  1  2  1  0
  2  3  1  0
  3  4  1  0
  4  5  1  0
  5  6  1  0
  6  7  1  0
  7  8  2  0
  8  9  1  0
  9 10  2  0
 10 11  1  0
  5 12  1  0
 12 13  2  0
 12 14  1  0
 14 15  1  0
 15 16  1  0
 15 17  1  0
 17 18  1  0
 18 19  2  0
 19 20  1  0
 20 21  1  0
 20 22  1  0
 11  7  1  0
 22 17  2  0
  1 23  1  0
  1 24  1  0
  1 25  1  0
  3 26  1  0
  3 27  1  0
  4 28  1  0
  4 29  1  0
  6 30  1  0
  6 31  1  0
  9 32  1  0
 10 33  1  0
 11 34  1  0
 14 35  1  0
 15 36  1  0
 16 37  1  0
 16 38  1  0
 16 39  1  0
 18 40  1  0
 19 41  1  0
 21 42  1  0
 21 43  1  0
 21 44  1  0
M  END
>  <Energy>  (86) 
71.172662154003092

>  <compound_id>  (86) 
18009

>  <target_id>  (86) 
1

>  <reference_id>  (86) 
114

>  <inspiration_ids>  (86) 
[7, 114]

>  <energy_score>  (86) 
77.5501121920596

>  <distance_score>  (86) 
11.50337309041041

>  <path>  (86) 
/opt/xchem-fragalysis-2/maxwin/BulkDock/SCRATCH/511020/C18009-P114/C18009-P114.minimised.mol

>  <scratch_subdir>  (86) 
/opt/xchem-fragalysis-2/maxwin/BulkDock/SCRATCH/511020/C18009-P114

>  <fragmenstein_runtime>  (86) 
15.704040288925171

>  <fragmenstein_outcome>  (86) 
too moved

>  <fragmenstein_mode>  (86) 
expansion

>  <fragmenstein_error>  (86) 


$$$$
C18011-P7
     RDKit          3D

 38 39  0  0  0  0  0  0  0  0999 V2000
   -2.5507   -0.7919   31.5965 C   0  0  0  0  0  0  0  0  0  0  0  0
   -1.1476   -1.1501   31.2417 N   0  0  0  0  0  0  0  0  0  0  0  0
   -0.9611    0.3398   31.3916 C   0  0  0  0  0  0  0  0  0  0  0  0
   -0.5801   -1.5977   30.0018 C   0  0  0  0  0  0  0  0  0  0  0  0
   -1.0771   -1.7117   28.9097 O   0  0  0  0  0  0  0  0  0  0  0  0
    0.8571   -2.0466   30.2589 C   0  0  0  0  0  0  0  0  0  0  0  0
    1.8166   -1.3124   29.4576 N   0  0  0  0  0  0  0  0  0  0  0  0
    2.4036   -1.7317   28.2969 C   0  0  0  0  0  0  0  0  0  0  0  0
    3.3149   -0.7641   27.9015 C   0  0  0  0  0  0  0  0  0  0  0  0
    3.8873   -0.7103   26.6313 N   0  0  0  0  0  0  0  0  0  0  0  0
    3.8639   -1.7073   25.4998 C   0  0  0  0  0  0  0  0  0  0  0  0
    3.4248   -2.7856   25.4758 O   0  0  0  0  0  0  0  0  0  0  0  0
    4.4597   -0.8924   24.3720 N   0  0  0  0  0  0  0  0  0  0  0  0
    4.5653   -1.2142   22.7310 C   0  0  0  0  0  0  0  0  0  0  0  0
    3.5558   -0.0239   21.3548 C   0  0  0  0  0  0  0  0  0  0  0  0
    5.0501    0.3117   20.3446 N   0  0  0  0  0  0  0  0  0  0  0  0
    4.6723   -0.5708   18.4081 C   0  0  0  0  0  0  0  0  0  0  0  0
    3.1192   -1.0391   18.2146 C   0  0  0  0  0  0  0  0  0  0  0  0
    2.2925   -0.8873   19.8302 N   0  0  0  0  0  0  0  0  0  0  0  0
    3.2093    0.1940   28.9419 C   0  0  0  0  0  0  0  0  0  0  0  0
    2.3131   -0.1320   29.8915 N   0  0  0  0  0  0  0  0  0  0  0  0
   -3.0828   -0.1856   30.8477 H   0  0  0  0  0  0  0  0  0  0  0  0
   -2.6940   -0.4725   32.6386 H   0  0  0  0  0  0  0  0  0  0  0  0
   -3.0772   -1.7561   31.5423 H   0  0  0  0  0  0  0  0  0  0  0  0
   -1.4176    0.9297   30.5813 H   0  0  0  0  0  0  0  0  0  0  0  0
    0.1142    0.5166   31.2607 H   0  0  0  0  0  0  0  0  0  0  0  0
   -1.1539    0.7379   32.3995 H   0  0  0  0  0  0  0  0  0  0  0  0
    0.9386   -3.1103   30.0099 H   0  0  0  0  0  0  0  0  0  0  0  0
    1.1441   -1.9296   31.3096 H   0  0  0  0  0  0  0  0  0  0  0  0
    2.0837   -2.6364   27.7963 H   0  0  0  0  0  0  0  0  0  0  0  0
    4.4125    0.0939   26.3510 H   0  0  0  0  0  0  0  0  0  0  0  0
    4.6688    0.0255   24.7030 H   0  0  0  0  0  0  0  0  0  0  0  0
    5.3619   -1.7752   22.2616 H   0  0  0  0  0  0  0  0  0  0  0  0
    3.9020   -2.0630   23.0912 H   0  0  0  0  0  0  0  0  0  0  0  0
    5.5522   -0.9201   17.8584 H   0  0  0  0  0  0  0  0  0  0  0  0
    2.5030   -1.5803   17.5120 H   0  0  0  0  0  0  0  0  0  0  0  0
    1.3433   -0.5253   19.7829 H   0  0  0  0  0  0  0  0  0  0  0  0
    3.7184    1.1449   29.0201 H   0  0  0  0  0  0  0  0  0  0  0  0
  1  2  1  0
  2  3  1  0
  2  4  1  0
  4  5  2  0
  4  6  1  0
  6  7  1  0
  7  8  1  0
  8  9  2  0
  9 10  1  0
 10 11  1  0
 11 12  2  0
 11 13  1  0
 13 14  1  0
 14 15  1  0
 15 16  2  0
 16 17  1  0
 17 18  2  0
 18 19  1  0
  9 20  1  0
 20 21  2  0
 21  7  1  0
 19 15  1  0
  1 22  1  0
  1 23  1  0
  1 24  1  0
  3 25  1  0
  3 26  1  0
  3 27  1  0
  6 28  1  0
  6 29  1  0
  8 30  1  0
 10 31  1  0
 13 32  1  0
 14 33  1  0
 14 34  1  0
 17 35  1  0
 18 36  1  0
 19 37  1  0
 20 38  1  0
M  END
>  <Energy>  (87) 
766.97400978185635

>  <compound_id>  (87) 
18011

>  <target_id>  (87) 
1

>  <reference_id>  (87) 
7

>  <inspiration_ids>  (87) 
[7, 114]

>  <energy_score>  (87) 
801.9702951633244

>  <distance_score>  (87) 
14.317834533467687

>  <path>  (87) 
/opt/xchem-fragalysis-2/maxwin/BulkDock/SCRATCH/511020/C18011-P7/C18011-P7.minimised.mol

>  <scratch_subdir>  (87) 
/opt/xchem-fragalysis-2/maxwin/BulkDock/SCRATCH/511020/C18011-P7

>  <fragmenstein_runtime>  (87) 
9.817163467407227

>  <fragmenstein_outcome>  (87) 
too moved

>  <fragmenstein_mode>  (87) 
expansion

>  <fragmenstein_error>  (87) 


$$$$
C18011-P114
     RDKit          3D

 38 39  0  0  0  0  0  0  0  0999 V2000
   -2.1675    0.5688   36.4489 C   0  0  0  0  0  0  0  0  0  0  0  0
   -2.9395   -0.1633   35.4019 N   0  0  0  0  0  0  0  0  0  0  0  0
   -3.7521   -0.5771   36.6007 C   0  0  0  0  0  0  0  0  0  0  0  0
   -3.8008    0.3219   34.3644 C   0  0  0  0  0  0  0  0  0  0  0  0
   -4.1912    1.4358   34.1296 O   0  0  0  0  0  0  0  0  0  0  0  0
   -4.1656   -0.8364   33.4453 C   0  0  0  0  0  0  0  0  0  0  0  0
   -3.4503   -0.7985   32.1817 N   0  0  0  0  0  0  0  0  0  0  0  0
   -2.1136   -0.5594   31.9830 C   0  0  0  0  0  0  0  0  0  0  0  0
   -1.8512   -0.7630   30.6450 C   0  0  0  0  0  0  0  0  0  0  0  0
   -0.6321   -0.6408   29.9968 N   0  0  0  0  0  0  0  0  0  0  0  0
    0.7202   -0.2096   30.5157 C   0  0  0  0  0  0  0  0  0  0  0  0
    1.0627    0.0467   31.6092 O   0  0  0  0  0  0  0  0  0  0  0  0
    1.4896   -0.1506   29.2197 N   0  0  0  0  0  0  0  0  0  0  0  0
    2.8303    0.3265   28.9372 C   0  0  0  0  0  0  0  0  0  0  0  0
    3.4823   -0.3194   27.7513 C   0  0  0  0  0  0  0  0  0  0  0  0
    2.9169   -0.7618   26.6474 N   0  0  0  0  0  0  0  0  0  0  0  0
    3.9364   -1.2724   25.8747 C   0  0  0  0  0  0  0  0  0  0  0  0
    5.1407   -1.1144   26.5105 C   0  0  0  0  0  0  0  0  0  0  0  0
    4.8489   -0.4876   27.6814 N   0  0  0  0  0  0  0  0  0  0  0  0
   -3.1149   -1.1291   30.1237 C   0  0  0  0  0  0  0  0  0  0  0  0
   -4.0774   -1.1972   31.0504 N   0  0  0  0  0  0  0  0  0  0  0  0
   -2.7059    1.4004   36.9283 H   0  0  0  0  0  0  0  0  0  0  0  0
   -1.3902    1.0880   35.8693 H   0  0  0  0  0  0  0  0  0  0  0  0
   -1.5986   -0.0729   37.1368 H   0  0  0  0  0  0  0  0  0  0  0  0
   -4.3416    0.2369   37.0517 H   0  0  0  0  0  0  0  0  0  0  0  0
   -3.2153   -1.2017   37.3305 H   0  0  0  0  0  0  0  0  0  0  0  0
   -4.5251   -1.2549   36.2088 H   0  0  0  0  0  0  0  0  0  0  0  0
   -5.2407   -0.7878   33.2394 H   0  0  0  0  0  0  0  0  0  0  0  0
   -3.9478   -1.8087   33.8998 H   0  0  0  0  0  0  0  0  0  0  0  0
   -1.4611   -0.2751   32.7982 H   0  0  0  0  0  0  0  0  0  0  0  0
   -0.5598   -0.8578   29.0214 H   0  0  0  0  0  0  0  0  0  0  0  0
    0.9213   -0.5162   28.4781 H   0  0  0  0  0  0  0  0  0  0  0  0
    3.4281    0.1843   29.8438 H   0  0  0  0  0  0  0  0  0  0  0  0
    2.7491    1.4041   28.7606 H   0  0  0  0  0  0  0  0  0  0  0  0
    3.7418   -1.7388   24.9172 H   0  0  0  0  0  0  0  0  0  0  0  0
    6.1419   -1.4213   26.2527 H   0  0  0  0  0  0  0  0  0  0  0  0
    5.5106   -0.2468   28.4052 H   0  0  0  0  0  0  0  0  0  0  0  0
   -3.3725   -1.3645   29.1016 H   0  0  0  0  0  0  0  0  0  0  0  0
  1  2  1  0
  2  3  1  0
  2  4  1  0
  4  5  2  0
  4  6  1  0
  6  7  1  0
  7  8  1  0
  8  9  2  0
  9 10  1  0
 10 11  1  0
 11 12  2  0
 11 13  1  0
 13 14  1  0
 14 15  1  0
 15 16  2  0
 16 17  1  0
 17 18  2  0
 18 19  1  0
  9 20  1  0
 20 21  2  0
 21  7  1  0
 19 15  1  0
  1 22  1  0
  1 23  1  0
  1 24  1  0
  3 25  1  0
  3 26  1  0
  3 27  1  0
  6 28  1  0
  6 29  1  0
  8 30  1  0
 10 31  1  0
 13 32  1  0
 14 33  1  0
 14 34  1  0
 17 35  1  0
 18 36  1  0
 19 37  1  0
 20 38  1  0
M  END
>  <Energy>  (88) 
32.178241237054898

>  <compound_id>  (88) 
18011

>  <target_id>  (88) 
1

>  <reference_id>  (88) 
114

>  <inspiration_ids>  (88) 
[7, 114]

>  <energy_score>  (88) 
67.17452661852163

>  <distance_score>  (88) 
12.46525231363669

>  <path>  (88) 
/opt/xchem-fragalysis-2/maxwin/BulkDock/SCRATCH/511020/C18011-P114/C18011-P114.minimised.mol

>  <scratch_subdir>  (88) 
/opt/xchem-fragalysis-2/maxwin/BulkDock/SCRATCH/511020/C18011-P114

>  <fragmenstein_runtime>  (88) 
11.630929708480835

>  <fragmenstein_outcome>  (88) 
too moved

>  <fragmenstein_mode>  (88) 
expansion

>  <fragmenstein_error>  (88) 


$$$$
C48754-P7
     RDKit          3D

 29 30  0  0  0  0  0  0  0  0999 V2000
    4.5712   -0.7169   24.4303 C   0  0  0  0  0  0  0  0  0  0  0  0
    4.1226   -1.5788   25.6089 C   0  0  0  0  0  0  0  0  0  0  0  0
    3.1550   -0.9003   26.4613 O   0  0  0  0  0  0  0  0  0  0  0  0
    2.7262   -1.7745   27.5616 C   0  0  0  0  0  0  0  0  0  0  0  0
    1.6441   -1.1954   28.5006 C   0  0  0  0  0  0  0  0  0  0  0  0
    1.6988   -1.1398   29.8347 N   0  0  0  0  0  0  0  0  0  0  0  0
    0.4673   -0.7163   30.2667 C   0  0  0  0  0  0  0  0  0  0  0  0
   -0.3667   -0.5196   29.1977 C   0  0  0  0  0  0  0  0  0  0  0  0
    0.3689   -0.8461   28.0900 N   0  0  0  0  0  0  0  0  0  0  0  0
   -1.7536   -0.0248   29.2562 C   0  0  0  0  0  0  0  0  0  0  0  0
   -2.2569   -0.1339   30.7142 C   0  0  0  0  0  0  0  0  0  0  0  0
   -1.2182    0.3371   31.7491 C   0  0  0  0  0  0  0  0  0  0  0  0
    0.0634   -0.5088   31.6846 C   0  0  0  0  0  0  0  0  0  0  0  0
    3.7129   -0.4344   23.8156 H   0  0  0  0  0  0  0  0  0  0  0  0
    5.2961   -1.2509   23.8100 H   0  0  0  0  0  0  0  0  0  0  0  0
    5.0242    0.2118   24.7916 H   0  0  0  0  0  0  0  0  0  0  0  0
    3.6778   -2.5051   25.2321 H   0  0  0  0  0  0  0  0  0  0  0  0
    4.9954   -1.8347   26.2200 H   0  0  0  0  0  0  0  0  0  0  0  0
    3.6102   -2.0006   28.1693 H   0  0  0  0  0  0  0  0  0  0  0  0
    2.3442   -2.7114   27.1433 H   0  0  0  0  0  0  0  0  0  0  0  0
    0.0560   -0.8524   27.1322 H   0  0  0  0  0  0  0  0  0  0  0  0
   -2.3954   -0.5973   28.5807 H   0  0  0  0  0  0  0  0  0  0  0  0
   -1.7814    1.0236   28.9377 H   0  0  0  0  0  0  0  0  0  0  0  0
   -2.5114   -1.1792   30.9333 H   0  0  0  0  0  0  0  0  0  0  0  0
   -3.1722    0.4482   30.8293 H   0  0  0  0  0  0  0  0  0  0  0  0
   -1.6423    0.2853   32.7580 H   0  0  0  0  0  0  0  0  0  0  0  0
   -0.9726    1.3887   31.5559 H   0  0  0  0  0  0  0  0  0  0  0  0
   -0.1150   -1.4863   32.1476 H   0  0  0  0  0  0  0  0  0  0  0  0
    0.8660   -0.0166   32.2438 H   0  0  0  0  0  0  0  0  0  0  0  0
  1  2  1  0
  2  3  1  0
  3  4  1  0
  4  5  1  0
  5  6  2  0
  6  7  1  0
  7  8  2  0
  8  9  1  0
  8 10  1  0
 10 11  1  0
 11 12  1  0
 12 13  1  0
  9  5  1  0
 13  7  1  0
  1 14  1  0
  1 15  1  0
  1 16  1  0
  2 17  1  0
  2 18  1  0
  4 19  1  0
  4 20  1  0
  9 21  1  0
 10 22  1  0
 10 23  1  0
 11 24  1  0
 11 25  1  0
 12 26  1  0
 12 27  1  0
 13 28  1  0
 13 29  1  0
M  END
>  <Energy>  (89) 
23.984175699141804

>  <compound_id>  (89) 
48754

>  <target_id>  (89) 
1

>  <reference_id>  (89) 
7

>  <inspiration_ids>  (89) 
[7, 114]

>  <energy_score>  (89) 
-23.956161228889698

>  <distance_score>  (89) 
14.066582338357286

>  <path>  (89) 
/opt/xchem-fragalysis-2/maxwin/BulkDock/SCRATCH/511020/C48754-P7/C48754-P7.minimised.mol

>  <scratch_subdir>  (89) 
/opt/xchem-fragalysis-2/maxwin/BulkDock/SCRATCH/511020/C48754-P7

>  <fragmenstein_runtime>  (89) 
6.5616865158081055

>  <fragmenstein_outcome>  (89) 
too moved

>  <fragmenstein_mode>  (89) 
expansion

>  <fragmenstein_error>  (89) 


$$$$
C48754-P114
     RDKit          3D

 29 30  0  0  0  0  0  0  0  0999 V2000
    4.5437   -1.0041   24.4717 C   0  0  0  0  0  0  0  0  0  0  0  0
    4.1401   -1.8830   25.6538 C   0  0  0  0  0  0  0  0  0  0  0  0
    3.1310   -1.2578   26.5004 O   0  0  0  0  0  0  0  0  0  0  0  0
    2.7181   -2.1747   27.5735 C   0  0  0  0  0  0  0  0  0  0  0  0
    1.5491   -1.7011   28.4608 C   0  0  0  0  0  0  0  0  0  0  0  0
    1.2737   -2.1407   29.6933 N   0  0  0  0  0  0  0  0  0  0  0  0
    0.1275   -1.5026   30.0945 C   0  0  0  0  0  0  0  0  0  0  0  0
   -0.3096   -0.6571   29.1079 C   0  0  0  0  0  0  0  0  0  0  0  0
    0.5658   -0.8165   28.0661 N   0  0  0  0  0  0  0  0  0  0  0  0
   -1.4844    0.2306   29.1754 C   0  0  0  0  0  0  0  0  0  0  0  0
   -1.9315    0.3494   30.6500 C   0  0  0  0  0  0  0  0  0  0  0  0
   -1.9144   -0.9933   31.4106 C   0  0  0  0  0  0  0  0  0  0  0  0
   -0.5192   -1.6350   31.4285 C   0  0  0  0  0  0  0  0  0  0  0  0
    4.9194   -0.0394   24.8270 H   0  0  0  0  0  0  0  0  0  0  0  0
    5.3163   -1.4905   23.8701 H   0  0  0  0  0  0  0  0  0  0  0  0
    3.6774   -0.7966   23.8387 H   0  0  0  0  0  0  0  0  0  0  0  0
    3.7542   -2.8367   25.2790 H   0  0  0  0  0  0  0  0  0  0  0  0
    5.0223   -2.0836   26.2719 H   0  0  0  0  0  0  0  0  0  0  0  0
    3.5874   -2.3330   28.2224 H   0  0  0  0  0  0  0  0  0  0  0  0
    2.4328   -3.1355   27.1334 H   0  0  0  0  0  0  0  0  0  0  0  0
    0.5398   -0.3669   27.1633 H   0  0  0  0  0  0  0  0  0  0  0  0
   -1.2578    1.2246   28.7755 H   0  0  0  0  0  0  0  0  0  0  0  0
   -2.2861   -0.1973   28.5666 H   0  0  0  0  0  0  0  0  0  0  0  0
   -1.2675    1.0508   31.1719 H   0  0  0  0  0  0  0  0  0  0  0  0
   -2.9361    0.7731   30.6887 H   0  0  0  0  0  0  0  0  0  0  0  0
   -2.2631   -0.8445   32.4388 H   0  0  0  0  0  0  0  0  0  0  0  0
   -2.6161   -1.6886   30.9363 H   0  0  0  0  0  0  0  0  0  0  0  0
   -0.5933   -2.6890   31.7161 H   0  0  0  0  0  0  0  0  0  0  0  0
    0.1071   -1.1303   32.1734 H   0  0  0  0  0  0  0  0  0  0  0  0
  1  2  1  0
  2  3  1  0
  3  4  1  0
  4  5  1  0
  5  6  2  0
  6  7  1  0
  7  8  2  0
  8  9  1  0
  8 10  1  0
 10 11  1  0
 11 12  1  0
 12 13  1  0
  9  5  1  0
 13  7  1  0
  1 14  1  0
  1 15  1  0
  1 16  1  0
  2 17  1  0
  2 18  1  0
  4 19  1  0
  4 20  1  0
  9 21  1  0
 10 22  1  0
 10 23  1  0
 11 24  1  0
 11 25  1  0
 12 26  1  0
 12 27  1  0
 13 28  1  0
 13 29  1  0
M  END
>  <Energy>  (90) 
21.978644427682383

>  <compound_id>  (90) 
48754

>  <target_id>  (90) 
1

>  <reference_id>  (90) 
114

>  <inspiration_ids>  (90) 
[7, 114]

>  <energy_score>  (90) 
-25.96169250035004

>  <distance_score>  (90) 
14.199892323172083

>  <path>  (90) 
/opt/xchem-fragalysis-2/maxwin/BulkDock/SCRATCH/511020/C48754-P114/C48754-P114.minimised.mol

>  <scratch_subdir>  (90) 
/opt/xchem-fragalysis-2/maxwin/BulkDock/SCRATCH/511020/C48754-P114

>  <fragmenstein_runtime>  (90) 
6.294536352157593

>  <fragmenstein_outcome>  (90) 
too moved

>  <fragmenstein_mode>  (90) 
expansion

>  <fragmenstein_error>  (90) 


$$$$
C32333-P7
     RDKit          3D

 36 38  0  0  0  0  0  0  0  0999 V2000
   -0.1112    1.0618   27.8727 C   0  0  0  0  0  0  0  0  0  0  0  0
    0.4480   -0.2971   28.2966 C   0  0  0  0  0  0  0  0  0  0  0  0
    0.2728   -0.3924   29.7454 O   0  0  0  0  0  0  0  0  0  0  0  0
   -0.9665   -1.0850   30.0872 C   0  0  0  0  0  0  0  0  0  0  0  0
   -1.5584   -0.7689   31.5014 C   0  0  0  0  0  0  0  0  0  0  0  0
   -2.4378    0.5167   31.5662 C   0  0  0  0  0  0  0  0  0  0  0  0
   -3.5177    0.1688   32.5573 C   0  0  0  0  0  0  0  0  0  0  0  0
   -4.4662    1.0096   33.1260 C   0  0  0  0  0  0  0  0  0  0  0  0
   -5.4305    0.4546   33.9686 C   0  0  0  0  0  0  0  0  0  0  0  0
   -5.4386   -0.9227   34.2329 C   0  0  0  0  0  0  0  0  0  0  0  0
   -4.4881   -1.7639   33.6504 C   0  0  0  0  0  0  0  0  0  0  0  0
   -3.5373   -1.2027   32.8127 C   0  0  0  0  0  0  0  0  0  0  0  0
   -2.4876   -1.9120   32.0134 C   0  0  0  0  0  0  0  0  0  0  0  0
    1.8968   -0.5015   27.8010 C   0  0  0  0  0  0  0  0  0  0  0  0
    2.3520   -1.5882   27.1942 N   0  0  0  0  0  0  0  0  0  0  0  0
    3.4881   -1.2273   26.5096 C   0  0  0  0  0  0  0  0  0  0  0  0
    3.8279    0.0663   26.8079 C   0  0  0  0  0  0  0  0  0  0  0  0
    2.8407    0.5020   27.6612 N   0  0  0  0  0  0  0  0  0  0  0  0
    0.3877    1.8758   28.4113 H   0  0  0  0  0  0  0  0  0  0  0  0
   -1.1754    1.1363   28.1212 H   0  0  0  0  0  0  0  0  0  0  0  0
    0.0024    1.2408   26.8012 H   0  0  0  0  0  0  0  0  0  0  0  0
   -0.1392   -1.0902   27.8160 H   0  0  0  0  0  0  0  0  0  0  0  0
   -0.7320   -2.1546   30.0307 H   0  0  0  0  0  0  0  0  0  0  0  0
   -1.7352   -0.8737   29.3339 H   0  0  0  0  0  0  0  0  0  0  0  0
   -0.7280   -0.6462   32.2104 H   0  0  0  0  0  0  0  0  0  0  0  0
   -1.8451    1.3723   31.9043 H   0  0  0  0  0  0  0  0  0  0  0  0
   -2.8868    0.7477   30.5952 H   0  0  0  0  0  0  0  0  0  0  0  0
   -4.4782    2.0737   32.9104 H   0  0  0  0  0  0  0  0  0  0  0  0
   -6.1896    1.0985   34.4086 H   0  0  0  0  0  0  0  0  0  0  0  0
   -6.2019   -1.3340   34.8871 H   0  0  0  0  0  0  0  0  0  0  0  0
   -4.5042   -2.8315   33.8421 H   0  0  0  0  0  0  0  0  0  0  0  0
   -1.9225   -2.6208   32.6269 H   0  0  0  0  0  0  0  0  0  0  0  0
   -2.9582   -2.4460   31.1828 H   0  0  0  0  0  0  0  0  0  0  0  0
    3.9606   -1.9178   25.8267 H   0  0  0  0  0  0  0  0  0  0  0  0
    4.6303    0.7088   26.4768 H   0  0  0  0  0  0  0  0  0  0  0  0
    2.7522    1.4352   28.0362 H   0  0  0  0  0  0  0  0  0  0  0  0
  1  2  1  0
  2  3  1  0
  3  4  1  0
  4  5  1  0
  5  6  1  0
  6  7  1  0
  7  8  2  0
  8  9  1  0
  9 10  2  0
 10 11  1  0
 11 12  2  0
 12 13  1  0
  2 14  1  0
 14 15  2  0
 15 16  1  0
 16 17  2  0
 17 18  1  0
 13  5  1  0
 18 14  1  0
 12  7  1  0
  1 19  1  0
  1 20  1  0
  1 21  1  0
  2 22  1  0
  4 23  1  0
  4 24  1  0
  5 25  1  0
  6 26  1  0
  6 27  1  0
  8 28  1  0
  9 29  1  0
 10 30  1  0
 11 31  1  0
 13 32  1  0
 13 33  1  0
 16 34  1  0
 17 35  1  0
 18 36  1  0
M  END
>  <Energy>  (91) 
54.832443503765312

>  <compound_id>  (91) 
32333

>  <target_id>  (91) 
1

>  <reference_id>  (91) 
7

>  <inspiration_ids>  (91) 
[7, 114]

>  <energy_score>  (91) 
-40.055412629653006

>  <distance_score>  (91) 
12.591052730360365

>  <path>  (91) 
/opt/xchem-fragalysis-2/maxwin/BulkDock/SCRATCH/511020/C32333-P7/C32333-P7.minimised.mol

>  <scratch_subdir>  (91) 
/opt/xchem-fragalysis-2/maxwin/BulkDock/SCRATCH/511020/C32333-P7

>  <fragmenstein_runtime>  (91) 
9.945808172225952

>  <fragmenstein_outcome>  (91) 
too moved

>  <fragmenstein_mode>  (91) 
expansion

>  <fragmenstein_error>  (91) 


$$$$
C32333-P114
     RDKit          3D

 36 38  0  0  0  0  0  0  0  0999 V2000
    2.1147   -2.5963   28.7320 C   0  0  0  0  0  0  0  0  0  0  0  0
    2.2988   -1.0824   28.6837 C   0  0  0  0  0  0  0  0  0  0  0  0
    0.9688   -0.4618   28.7631 O   0  0  0  0  0  0  0  0  0  0  0  0
    0.5128   -0.2471   30.1375 C   0  0  0  0  0  0  0  0  0  0  0  0
   -1.0384   -0.3922   30.3769 C   0  0  0  0  0  0  0  0  0  0  0  0
   -1.5976    0.6255   31.4280 C   0  0  0  0  0  0  0  0  0  0  0  0
   -2.7085   -0.1160   32.1150 C   0  0  0  0  0  0  0  0  0  0  0  0
   -3.6964    0.3871   32.9544 C   0  0  0  0  0  0  0  0  0  0  0  0
   -4.5978   -0.5106   33.5301 C   0  0  0  0  0  0  0  0  0  0  0  0
   -4.4918   -1.8872   33.2793 C   0  0  0  0  0  0  0  0  0  0  0  0
   -3.4890   -2.3829   32.4422 C   0  0  0  0  0  0  0  0  0  0  0  0
   -2.6138   -1.4832   31.8543 C   0  0  0  0  0  0  0  0  0  0  0  0
   -1.4585   -1.7859   30.9391 C   0  0  0  0  0  0  0  0  0  0  0  0
    3.0979   -0.6689   27.4266 C   0  0  0  0  0  0  0  0  0  0  0  0
    3.9946   -1.3922   26.7565 N   0  0  0  0  0  0  0  0  0  0  0  0
    4.4841   -0.5831   25.7570 C   0  0  0  0  0  0  0  0  0  0  0  0
    3.9803    0.6851   25.8819 C   0  0  0  0  0  0  0  0  0  0  0  0
    3.0931    0.6136   26.9233 N   0  0  0  0  0  0  0  0  0  0  0  0
    1.5481   -2.9487   27.8633 H   0  0  0  0  0  0  0  0  0  0  0  0
    3.0784   -3.1132   28.7483 H   0  0  0  0  0  0  0  0  0  0  0  0
    1.5493   -2.8991   29.6192 H   0  0  0  0  0  0  0  0  0  0  0  0
    2.8926   -0.7481   29.5445 H   0  0  0  0  0  0  0  0  0  0  0  0
    0.8130    0.7799   30.3746 H   0  0  0  0  0  0  0  0  0  0  0  0
    1.0510   -0.9093   30.8251 H   0  0  0  0  0  0  0  0  0  0  0  0
   -1.5620   -0.2323   29.4244 H   0  0  0  0  0  0  0  0  0  0  0  0
   -1.9628    1.5286   30.9293 H   0  0  0  0  0  0  0  0  0  0  0  0
   -0.8323    0.8970   32.1634 H   0  0  0  0  0  0  0  0  0  0  0  0
   -3.7726    1.4503   33.1591 H   0  0  0  0  0  0  0  0  0  0  0  0
   -5.3877   -0.1374   34.1782 H   0  0  0  0  0  0  0  0  0  0  0  0
   -5.1964   -2.5719   33.7437 H   0  0  0  0  0  0  0  0  0  0  0  0
   -3.4010   -3.4485   32.2624 H   0  0  0  0  0  0  0  0  0  0  0  0
   -1.7538   -2.4541   30.1242 H   0  0  0  0  0  0  0  0  0  0  0  0
   -0.6522   -2.2504   31.5162 H   0  0  0  0  0  0  0  0  0  0  0  0
    5.1639   -0.9438   24.9987 H   0  0  0  0  0  0  0  0  0  0  0  0
    4.1214    1.5834   25.2994 H   0  0  0  0  0  0  0  0  0  0  0  0
    2.5031    1.3572   27.2672 H   0  0  0  0  0  0  0  0  0  0  0  0
  1  2  1  0
  2  3  1  0
  3  4  1  0
  4  5  1  0
  5  6  1  0
  6  7  1  0
  7  8  2  0
  8  9  1  0
  9 10  2  0
 10 11  1  0
 11 12  2  0
 12 13  1  0
  2 14  1  0
 14 15  2  0
 15 16  1  0
 16 17  2  0
 17 18  1  0
 13  5  1  0
 18 14  1  0
 12  7  1  0
  1 19  1  0
  1 20  1  0
  1 21  1  0
  2 22  1  0
  4 23  1  0
  4 24  1  0
  5 25  1  0
  6 26  1  0
  6 27  1  0
  8 28  1  0
  9 29  1  0
 10 30  1  0
 11 31  1  0
 13 32  1  0
 13 33  1  0
 16 34  1  0
 17 35  1  0
 18 36  1  0
M  END
>  <Energy>  (92) 
52.006657499180491

>  <compound_id>  (92) 
32333

>  <target_id>  (92) 
1

>  <reference_id>  (92) 
114

>  <inspiration_ids>  (92) 
[7, 114]

>  <energy_score>  (92) 
-42.88119863423964

>  <distance_score>  (92) 
12.689695382965548

>  <path>  (92) 
/opt/xchem-fragalysis-2/maxwin/BulkDock/SCRATCH/511020/C32333-P114/C32333-P114.minimised.mol

>  <scratch_subdir>  (92) 
/opt/xchem-fragalysis-2/maxwin/BulkDock/SCRATCH/511020/C32333-P114

>  <fragmenstein_runtime>  (92) 
8.116739749908447

>  <fragmenstein_outcome>  (92) 
too moved

>  <fragmenstein_mode>  (92) 
expansion

>  <fragmenstein_error>  (92) 


$$$$
C48757-P7
     RDKit          3D

 42 43  0  0  0  0  0  0  0  0999 V2000
   -7.5198   -1.3049   34.8648 C   0  0  0  0  0  0  0  0  0  0  0  0
   -6.2360   -1.9213   34.7347 O   0  0  0  0  0  0  0  0  0  0  0  0
   -5.5650   -1.5601   33.5126 C   0  0  0  0  0  0  0  0  0  0  0  0
   -4.0520   -1.9876   33.5116 C   0  0  0  0  0  0  0  0  0  0  0  0
   -3.1964   -1.4581   32.3932 N   0  0  0  0  0  0  0  0  0  0  0  0
   -1.9599   -2.1812   32.0380 N   0  0  0  0  0  0  0  0  0  0  0  0
   -1.1240   -1.6227   31.1681 C   0  0  0  0  0  0  0  0  0  0  0  0
    0.3855   -2.1381   30.8866 C   0  0  0  0  0  0  0  0  0  0  0  0
    0.8783   -2.6971   31.8278 O   0  0  0  0  0  0  0  0  0  0  0  0
    0.9676   -1.7660   29.5722 N   0  0  0  0  0  0  0  0  0  0  0  0
    2.4092   -1.8835   29.0367 C   0  0  0  0  0  0  0  0  0  0  0  0
    3.1739   -3.0281   29.7181 C   0  0  0  0  0  0  0  0  0  0  0  0
    2.3961   -4.2250   29.7473 O   0  0  0  0  0  0  0  0  0  0  0  0
    2.5265   -1.9419   27.4595 C   0  0  0  0  0  0  0  0  0  0  0  0
    3.8501   -1.7046   26.7363 C   0  0  0  0  0  0  0  0  0  0  0  0
    4.1771   -2.0973   25.4456 C   0  0  0  0  0  0  0  0  0  0  0  0
    5.3946   -1.5492   25.1655 N   0  0  0  0  0  0  0  0  0  0  0  0
    5.7885   -0.8760   26.2831 C   0  0  0  0  0  0  0  0  0  0  0  0
    4.8866   -0.9507   27.2441 N   0  0  0  0  0  0  0  0  0  0  0  0
   -1.4471   -0.3649   30.4871 C   0  0  0  0  0  0  0  0  0  0  0  0
   -2.4913    0.3132   30.9290 C   0  0  0  0  0  0  0  0  0  0  0  0
   -3.3036   -0.1104   32.0701 C   0  0  0  0  0  0  0  0  0  0  0  0
   -4.0414    0.7342   32.5718 O   0  0  0  0  0  0  0  0  0  0  0  0
   -8.0274   -1.7312   35.7329 H   0  0  0  0  0  0  0  0  0  0  0  0
   -8.1210   -1.4822   33.9724 H   0  0  0  0  0  0  0  0  0  0  0  0
   -7.3979   -0.2292   35.0219 H   0  0  0  0  0  0  0  0  0  0  0  0
   -6.0714   -2.0272   32.6618 H   0  0  0  0  0  0  0  0  0  0  0  0
   -5.6730   -0.4816   33.4031 H   0  0  0  0  0  0  0  0  0  0  0  0
   -3.5906   -1.6483   34.4467 H   0  0  0  0  0  0  0  0  0  0  0  0
   -3.9864   -3.0802   33.4973 H   0  0  0  0  0  0  0  0  0  0  0  0
    0.2435   -1.3794   28.9864 H   0  0  0  0  0  0  0  0  0  0  0  0
    2.8814   -0.9427   29.3469 H   0  0  0  0  0  0  0  0  0  0  0  0
    4.1200   -3.2364   29.2103 H   0  0  0  0  0  0  0  0  0  0  0  0
    3.4172   -2.7626   30.7534 H   0  0  0  0  0  0  0  0  0  0  0  0
    1.8450   -4.1554   30.5519 H   0  0  0  0  0  0  0  0  0  0  0  0
    2.1272   -2.9119   27.1470 H   0  0  0  0  0  0  0  0  0  0  0  0
    1.8343   -1.1844   27.0720 H   0  0  0  0  0  0  0  0  0  0  0  0
    3.6245   -2.6579   24.7052 H   0  0  0  0  0  0  0  0  0  0  0  0
    5.8801   -1.5936   24.2816 H   0  0  0  0  0  0  0  0  0  0  0  0
    6.7277   -0.3431   26.3413 H   0  0  0  0  0  0  0  0  0  0  0  0
   -0.8506    0.0364   29.6835 H   0  0  0  0  0  0  0  0  0  0  0  0
   -2.7371    1.2206   30.4196 H   0  0  0  0  0  0  0  0  0  0  0  0
  1  2  1  0
  2  3  1  0
  3  4  1  0
  4  5  1  0
  5  6  1  0
  6  7  2  0
  7  8  1  0
  8  9  2  0
  8 10  1  0
 10 11  1  0
 11 12  1  0
 12 13  1  0
 11 14  1  0
 14 15  1  0
 15 16  2  0
 16 17  1  0
 17 18  1  0
 18 19  2  0
  7 20  1  0
 20 21  2  0
 21 22  1  0
 22 23  2  0
 22  5  1  0
 19 15  1  0
  1 24  1  0
  1 25  1  0
  1 26  1  0
  3 27  1  0
  3 28  1  0
  4 29  1  0
  4 30  1  0
 10 31  1  0
 11 32  1  0
 12 33  1  0
 12 34  1  0
 13 35  1  0
 14 36  1  0
 14 37  1  0
 16 38  1  0
 17 39  1  0
 18 40  1  0
 20 41  1  0
 21 42  1  0
M  END
>  <Energy>  (93) 
143.6324893195434

>  <compound_id>  (93) 
48757

>  <target_id>  (93) 
1

>  <reference_id>  (93) 
7

>  <inspiration_ids>  (93) 
[7, 114]

>  <energy_score>  (93) 
-0.6017018861655288

>  <distance_score>  (93) 
11.724065500412486

>  <path>  (93) 
/opt/xchem-fragalysis-2/maxwin/BulkDock/SCRATCH/511020/C48757-P7/C48757-P7.minimised.mol

>  <scratch_subdir>  (93) 
/opt/xchem-fragalysis-2/maxwin/BulkDock/SCRATCH/511020/C48757-P7

>  <fragmenstein_runtime>  (93) 
8.316591739654541

>  <fragmenstein_outcome>  (93) 
too moved

>  <fragmenstein_mode>  (93) 
expansion

>  <fragmenstein_error>  (93) 


$$$$
C48757-P114
     RDKit          3D

 42 43  0  0  0  0  0  0  0  0999 V2000
   -8.9733   -0.9898   35.8171 C   0  0  0  0  0  0  0  0  0  0  0  0
   -8.0927   -1.6396   34.9018 O   0  0  0  0  0  0  0  0  0  0  0  0
   -6.9357   -0.8476   34.5679 C   0  0  0  0  0  0  0  0  0  0  0  0
   -5.8964   -1.6331   33.6940 C   0  0  0  0  0  0  0  0  0  0  0  0
   -4.5143   -1.0683   33.6466 N   0  0  0  0  0  0  0  0  0  0  0  0
   -3.8228   -0.9874   32.3782 N   0  0  0  0  0  0  0  0  0  0  0  0
   -2.5644   -0.5892   32.3627 C   0  0  0  0  0  0  0  0  0  0  0  0
   -1.7361   -0.2346   31.0172 C   0  0  0  0  0  0  0  0  0  0  0  0
   -2.3083    0.5255   30.2878 O   0  0  0  0  0  0  0  0  0  0  0  0
   -0.3842   -0.8062   30.9339 N   0  0  0  0  0  0  0  0  0  0  0  0
    0.7752   -0.5337   29.9395 C   0  0  0  0  0  0  0  0  0  0  0  0
    0.8778    0.9913   29.7116 C   0  0  0  0  0  0  0  0  0  0  0  0
    0.9074    1.6826   30.9707 O   0  0  0  0  0  0  0  0  0  0  0  0
    0.8704   -1.3099   28.5674 C   0  0  0  0  0  0  0  0  0  0  0  0
    2.1771   -1.2633   27.7573 C   0  0  0  0  0  0  0  0  0  0  0  0
    2.8936   -2.3281   27.2279 C   0  0  0  0  0  0  0  0  0  0  0  0
    3.7768   -1.7886   26.3283 N   0  0  0  0  0  0  0  0  0  0  0  0
    3.6515   -0.4352   26.4124 C   0  0  0  0  0  0  0  0  0  0  0  0
    2.7182   -0.0842   27.2746 N   0  0  0  0  0  0  0  0  0  0  0  0
   -1.8499   -0.2201   33.6064 C   0  0  0  0  0  0  0  0  0  0  0  0
   -2.4762   -0.3825   34.7726 C   0  0  0  0  0  0  0  0  0  0  0  0
   -3.8460   -0.9143   34.8566 C   0  0  0  0  0  0  0  0  0  0  0  0
   -4.3066   -1.1548   35.9685 O   0  0  0  0  0  0  0  0  0  0  0  0
   -8.4973   -0.9136   36.7990 H   0  0  0  0  0  0  0  0  0  0  0  0
   -9.8831   -1.5887   35.9077 H   0  0  0  0  0  0  0  0  0  0  0  0
   -9.2412    0.0081   35.4590 H   0  0  0  0  0  0  0  0  0  0  0  0
   -7.2567    0.0415   34.0131 H   0  0  0  0  0  0  0  0  0  0  0  0
   -6.4885   -0.4994   35.5015 H   0  0  0  0  0  0  0  0  0  0  0  0
   -5.7918   -2.6489   34.0892 H   0  0  0  0  0  0  0  0  0  0  0  0
   -6.2736   -1.7165   32.6687 H   0  0  0  0  0  0  0  0  0  0  0  0
   -0.2615   -1.4777   31.6805 H   0  0  0  0  0  0  0  0  0  0  0  0
    1.6507   -0.8326   30.5315 H   0  0  0  0  0  0  0  0  0  0  0  0
    1.7947    1.2559   29.1807 H   0  0  0  0  0  0  0  0  0  0  0  0
    0.0195    1.3608   29.1415 H   0  0  0  0  0  0  0  0  0  0  0  0
    0.9786    2.6271   30.7428 H   0  0  0  0  0  0  0  0  0  0  0  0
    0.6482   -2.3648   28.7764 H   0  0  0  0  0  0  0  0  0  0  0  0
    0.0611   -0.9570   27.9156 H   0  0  0  0  0  0  0  0  0  0  0  0
    2.7620   -3.3963   27.3118 H   0  0  0  0  0  0  0  0  0  0  0  0
    4.3481   -2.2911   25.6639 H   0  0  0  0  0  0  0  0  0  0  0  0
    4.2331    0.2295   25.7962 H   0  0  0  0  0  0  0  0  0  0  0  0
   -0.8493    0.1891   33.5364 H   0  0  0  0  0  0  0  0  0  0  0  0
   -2.0016   -0.1385   35.7155 H   0  0  0  0  0  0  0  0  0  0  0  0
  1  2  1  0
  2  3  1  0
  3  4  1  0
  4  5  1  0
  5  6  1  0
  6  7  2  0
  7  8  1  0
  8  9  2  0
  8 10  1  0
 10 11  1  0
 11 12  1  0
 12 13  1  0
 11 14  1  0
 14 15  1  0
 15 16  2  0
 16 17  1  0
 17 18  1  0
 18 19  2  0
  7 20  1  0
 20 21  2  0
 21 22  1  0
 22 23  2  0
 22  5  1  0
 19 15  1  0
  1 24  1  0
  1 25  1  0
  1 26  1  0
  3 27  1  0
  3 28  1  0
  4 29  1  0
  4 30  1  0
 10 31  1  0
 11 32  1  0
 12 33  1  0
 12 34  1  0
 13 35  1  0
 14 36  1  0
 14 37  1  0
 16 38  1  0
 17 39  1  0
 18 40  1  0
 20 41  1  0
 21 42  1  0
M  END
>  <Energy>  (94) 
133.15412308434705

>  <compound_id>  (94) 
48757

>  <target_id>  (94) 
1

>  <reference_id>  (94) 
114

>  <inspiration_ids>  (94) 
[7, 114]

>  <energy_score>  (94) 
-11.08006812135983

>  <distance_score>  (94) 
11.685335700575992

>  <path>  (94) 
/opt/xchem-fragalysis-2/maxwin/BulkDock/SCRATCH/511020/C48757-P114/C48757-P114.minimised.mol

>  <scratch_subdir>  (94) 
/opt/xchem-fragalysis-2/maxwin/BulkDock/SCRATCH/511020/C48757-P114

>  <fragmenstein_runtime>  (94) 
9.6502206325531

>  <fragmenstein_outcome>  (94) 
too moved

>  <fragmenstein_mode>  (94) 
expansion

>  <fragmenstein_error>  (94) 


$$$$
C32334-P7
     RDKit          3D

 38 39  0  0  0  0  0  0  0  0999 V2000
   -4.4211   -2.4717   32.9504 C   0  0  0  0  0  0  0  0  0  0  0  0
   -3.8529   -1.7181   31.8753 O   0  0  0  0  0  0  0  0  0  0  0  0
   -2.6835   -2.3218   31.2874 C   0  0  0  0  0  0  0  0  0  0  0  0
   -2.2721   -1.8386   29.8043 C   0  0  0  0  0  0  0  0  0  0  0  0
   -3.0702   -2.2887   28.6055 N   0  0  0  0  0  0  0  0  0  0  0  0
   -2.6876   -1.7785   27.1096 N   0  0  0  0  0  0  0  0  0  0  0  0
   -3.4812   -2.2145   25.9958 C   0  0  0  0  0  0  0  0  0  0  0  0
   -2.5902   -3.0509   24.3657 C   0  0  0  0  0  0  0  0  0  0  0  0
   -2.6385   -4.2563   24.3458 O   0  0  0  0  0  0  0  0  0  0  0  0
   -1.6967   -1.8725   23.2457 N   0  0  0  0  0  0  0  0  0  0  0  0
   -2.5003   -1.5399   22.2750 C   0  0  0  0  0  0  0  0  0  0  0  0
   -0.3183   -2.1924   21.6745 C   0  0  0  0  0  0  0  0  0  0  0  0
    0.4629   -1.1220   19.8538 C   0  0  0  0  0  0  0  0  0  0  0  0
   -0.1726   -1.2720   18.4544 N   0  0  0  0  0  0  0  0  0  0  0  0
    0.6215   -1.1786   17.3610 C   0  0  0  0  0  0  0  0  0  0  0  0
    1.8093   -0.7989   17.8183 C   0  0  0  0  0  0  0  0  0  0  0  0
    1.6291   -0.7228   19.1849 N   0  0  0  0  0  0  0  0  0  0  0  0
   -4.7878   -2.4585   26.6193 C   0  0  0  0  0  0  0  0  0  0  0  0
   -5.2132   -2.9108   27.7896 C   0  0  0  0  0  0  0  0  0  0  0  0
   -4.3641   -2.9353   28.8603 C   0  0  0  0  0  0  0  0  0  0  0  0
   -4.9929   -3.2263   29.9093 O   0  0  0  0  0  0  0  0  0  0  0  0
   -5.3162   -1.9507   33.2989 H   0  0  0  0  0  0  0  0  0  0  0  0
   -3.7038   -2.5394   33.7733 H   0  0  0  0  0  0  0  0  0  0  0  0
   -4.6972   -3.4735   32.6122 H   0  0  0  0  0  0  0  0  0  0  0  0
   -1.8480   -2.0339   31.9378 H   0  0  0  0  0  0  0  0  0  0  0  0
   -2.7389   -3.4106   31.3381 H   0  0  0  0  0  0  0  0  0  0  0  0
   -1.2516   -2.1863   29.6102 H   0  0  0  0  0  0  0  0  0  0  0  0
   -2.2676   -0.7427   29.7807 H   0  0  0  0  0  0  0  0  0  0  0  0
   -2.7994   -0.5134   22.0480 H   0  0  0  0  0  0  0  0  0  0  0  0
   -3.1335   -1.5673   23.0869 H   0  0  0  0  0  0  0  0  0  0  0  0
   -3.1107   -2.4044   21.9934 H   0  0  0  0  0  0  0  0  0  0  0  0
   -0.8571   -1.4915   21.3533 H   0  0  0  0  0  0  0  0  0  0  0  0
    0.5051   -2.3606   22.3528 H   0  0  0  0  0  0  0  0  0  0  0  0
    0.2599   -1.3362   16.3571 H   0  0  0  0  0  0  0  0  0  0  0  0
    2.7281   -0.4972   17.3410 H   0  0  0  0  0  0  0  0  0  0  0  0
    2.1145   -0.0170   19.6715 H   0  0  0  0  0  0  0  0  0  0  0  0
   -5.5769   -2.2273   25.9181 H   0  0  0  0  0  0  0  0  0  0  0  0
   -6.2577   -3.0150   28.1007 H   0  0  0  0  0  0  0  0  0  0  0  0
  1  2  1  0
  2  3  1  0
  3  4  1  0
  4  5  1  0
  5  6  1  0
  6  7  2  0
  7  8  1  0
  8  9  2  0
  8 10  1  0
 10 11  1  0
 10 12  1  0
 12 13  1  0
 13 14  2  0
 14 15  1  0
 15 16  2  0
 16 17  1  0
  7 18  1  0
 18 19  2  0
 19 20  1  0
 20 21  2  0
 20  5  1  0
 17 13  1  0
  1 22  1  0
  1 23  1  0
  1 24  1  0
  3 25  1  0
  3 26  1  0
  4 27  1  0
  4 28  1  0
 11 29  1  0
 11 30  1  0
 11 31  1  0
 12 32  1  0
 12 33  1  0
 15 34  1  0
 16 35  1  0
 17 36  1  0
 18 37  1  0
 19 38  1  0
M  END
>  <Energy>  (95) 
856.03020199718014

>  <compound_id>  (95) 
32334

>  <target_id>  (95) 
1

>  <reference_id>  (95) 
7

>  <inspiration_ids>  (95) 
[7, 114]

>  <energy_score>  (95) 
737.7420720346096

>  <distance_score>  (95) 
12.290344632706297

>  <path>  (95) 
/opt/xchem-fragalysis-2/maxwin/BulkDock/SCRATCH/511020/C32334-P7/C32334-P7.minimised.mol

>  <scratch_subdir>  (95) 
/opt/xchem-fragalysis-2/maxwin/BulkDock/SCRATCH/511020/C32334-P7

>  <fragmenstein_runtime>  (95) 
7.040344476699829

>  <fragmenstein_outcome>  (95) 
too moved

>  <fragmenstein_mode>  (95) 
expansion

>  <fragmenstein_error>  (95) 


$$$$
C32334-P114
     RDKit          3D

 38 39  0  0  0  0  0  0  0  0999 V2000
   -0.4132   -2.7607   29.0244 C   0  0  0  0  0  0  0  0  0  0  0  0
    0.6975   -3.2855   28.2682 O   0  0  0  0  0  0  0  0  0  0  0  0
    1.5823   -2.2370   27.7581 C   0  0  0  0  0  0  0  0  0  0  0  0
    2.8633   -2.7402   26.8641 C   0  0  0  0  0  0  0  0  0  0  0  0
    3.7191   -1.7212   26.0677 N   0  0  0  0  0  0  0  0  0  0  0  0
    4.5898   -2.0793   24.7235 N   0  0  0  0  0  0  0  0  0  0  0  0
    5.6902   -1.3263   24.4373 C   0  0  0  0  0  0  0  0  0  0  0  0
    6.9629   -1.1660   23.0585 C   0  0  0  0  0  0  0  0  0  0  0  0
    8.0854   -1.1515   23.5285 O   0  0  0  0  0  0  0  0  0  0  0  0
    6.5104   -0.9602   21.5524 N   0  0  0  0  0  0  0  0  0  0  0  0
    6.4603   -2.2103   20.8921 C   0  0  0  0  0  0  0  0  0  0  0  0
    7.4997   -0.4906   20.0207 C   0  0  0  0  0  0  0  0  0  0  0  0
    7.8721   -0.0090   18.1454 C   0  0  0  0  0  0  0  0  0  0  0  0
    8.6706   -0.6007   17.1945 N   0  0  0  0  0  0  0  0  0  0  0  0
    9.0368    0.1888   16.1295 C   0  0  0  0  0  0  0  0  0  0  0  0
    8.8458    1.4861   16.4617 C   0  0  0  0  0  0  0  0  0  0  0  0
    8.2210    1.4460   17.6707 N   0  0  0  0  0  0  0  0  0  0  0  0
    6.1741   -0.5239   25.6280 C   0  0  0  0  0  0  0  0  0  0  0  0
    5.3891   -0.1200   26.6297 C   0  0  0  0  0  0  0  0  0  0  0  0
    4.0081   -0.5649   26.7726 C   0  0  0  0  0  0  0  0  0  0  0  0
    3.3050   -0.0164   27.6161 O   0  0  0  0  0  0  0  0  0  0  0  0
   -0.0433   -2.1758   29.8711 H   0  0  0  0  0  0  0  0  0  0  0  0
   -1.0430   -2.1425   28.3793 H   0  0  0  0  0  0  0  0  0  0  0  0
   -0.9930   -3.6041   29.3999 H   0  0  0  0  0  0  0  0  0  0  0  0
    1.9802   -1.7205   28.6384 H   0  0  0  0  0  0  0  0  0  0  0  0
    0.9934   -1.5182   27.1865 H   0  0  0  0  0  0  0  0  0  0  0  0
    2.6495   -3.5910   26.2252 H   0  0  0  0  0  0  0  0  0  0  0  0
    3.5678   -3.1497   27.6023 H   0  0  0  0  0  0  0  0  0  0  0  0
    7.3612   -2.8016   21.0286 H   0  0  0  0  0  0  0  0  0  0  0  0
    5.9260   -2.3012   19.9585 H   0  0  0  0  0  0  0  0  0  0  0  0
    5.7910   -2.7151   21.5593 H   0  0  0  0  0  0  0  0  0  0  0  0
    6.5290   -0.5243   19.5072 H   0  0  0  0  0  0  0  0  0  0  0  0
    7.5346    0.5460   20.3958 H   0  0  0  0  0  0  0  0  0  0  0  0
    9.4891   -0.2316   15.2381 H   0  0  0  0  0  0  0  0  0  0  0  0
    9.0703    2.4127   15.9545 H   0  0  0  0  0  0  0  0  0  0  0  0
    7.8735    2.2329   18.1966 H   0  0  0  0  0  0  0  0  0  0  0  0
    7.2248   -0.2574   25.6189 H   0  0  0  0  0  0  0  0  0  0  0  0
    5.7719    0.5005   27.4299 H   0  0  0  0  0  0  0  0  0  0  0  0
  1  2  1  0
  2  3  1  0
  3  4  1  0
  4  5  1  0
  5  6  1  0
  6  7  2  0
  7  8  1  0
  8  9  2  0
  8 10  1  0
 10 11  1  0
 10 12  1  0
 12 13  1  0
 13 14  2  0
 14 15  1  0
 15 16  2  0
 16 17  1  0
  7 18  1  0
 18 19  2  0
 19 20  1  0
 20 21  2  0
 20  5  1  0
 17 13  1  0
  1 22  1  0
  1 23  1  0
  1 24  1  0
  3 25  1  0
  3 26  1  0
  4 27  1  0
  4 28  1  0
 11 29  1  0
 11 30  1  0
 11 31  1  0
 12 32  1  0
 12 33  1  0
 15 34  1  0
 16 35  1  0
 17 36  1  0
 18 37  1  0
 19 38  1  0
M  END
>  <Energy>  (96) 
452.20583483888623

>  <compound_id>  (96) 
32334

>  <target_id>  (96) 
1

>  <reference_id>  (96) 
114

>  <inspiration_ids>  (96) 
[7, 114]

>  <energy_score>  (96) 
333.91770487631993

>  <distance_score>  (96) 
15.675764606994884

>  <path>  (96) 
/opt/xchem-fragalysis-2/maxwin/BulkDock/SCRATCH/511020/C32334-P114/C32334-P114.minimised.mol

>  <scratch_subdir>  (96) 
/opt/xchem-fragalysis-2/maxwin/BulkDock/SCRATCH/511020/C32334-P114

>  <fragmenstein_runtime>  (96) 
7.289106369018555

>  <fragmenstein_outcome>  (96) 
too moved

>  <fragmenstein_mode>  (96) 
expansion

>  <fragmenstein_error>  (96) 


$$$$
C48758-P7
     RDKit          3D

 41 42  0  0  0  0  0  0  0  0999 V2000
   -8.6896   -1.1392   35.9754 C   0  0  0  0  0  0  0  0  0  0  0  0
   -7.8305   -1.7186   34.9960 O   0  0  0  0  0  0  0  0  0  0  0  0
   -6.7013   -0.8820   34.6686 C   0  0  0  0  0  0  0  0  0  0  0  0
   -5.6556   -1.6322   33.7783 C   0  0  0  0  0  0  0  0  0  0  0  0
   -4.3014   -1.0172   33.6416 N   0  0  0  0  0  0  0  0  0  0  0  0
   -3.6887   -0.9890   32.3454 N   0  0  0  0  0  0  0  0  0  0  0  0
   -2.4443   -0.5642   32.2180 C   0  0  0  0  0  0  0  0  0  0  0  0
   -1.8074   -0.2617   30.7848 C   0  0  0  0  0  0  0  0  0  0  0  0
   -2.4945    0.5115   30.1754 O   0  0  0  0  0  0  0  0  0  0  0  0
   -0.5185   -0.8904   30.4275 N   0  0  0  0  0  0  0  0  0  0  0  0
    0.3086   -0.8366   29.1138 C   0  0  0  0  0  0  0  0  0  0  0  0
   -0.1473    0.3534   28.2644 C   0  0  0  0  0  0  0  0  0  0  0  0
    1.9021   -0.8154   29.2352 C   0  0  0  0  0  0  0  0  0  0  0  0
    2.7509   -0.9482   27.9687 C   0  0  0  0  0  0  0  0  0  0  0  0
    3.7168   -0.0985   27.4453 C   0  0  0  0  0  0  0  0  0  0  0  0
    4.2671   -0.7568   26.3742 N   0  0  0  0  0  0  0  0  0  0  0  0
    3.5939   -1.9315   26.2440 C   0  0  0  0  0  0  0  0  0  0  0  0
    2.7314   -2.1022   27.2237 N   0  0  0  0  0  0  0  0  0  0  0  0
   -1.6496   -0.1330   33.3830 C   0  0  0  0  0  0  0  0  0  0  0  0
   -2.2091   -0.2342   34.5923 C   0  0  0  0  0  0  0  0  0  0  0  0
   -3.5675   -0.7767   34.7949 C   0  0  0  0  0  0  0  0  0  0  0  0
   -3.9513   -0.9843   35.9415 O   0  0  0  0  0  0  0  0  0  0  0  0
   -8.1822   -1.1147   36.9442 H   0  0  0  0  0  0  0  0  0  0  0  0
   -8.9809   -0.1258   35.6855 H   0  0  0  0  0  0  0  0  0  0  0  0
   -9.5856   -1.7590   36.0607 H   0  0  0  0  0  0  0  0  0  0  0  0
   -6.2477   -0.5421   35.6029 H   0  0  0  0  0  0  0  0  0  0  0  0
   -7.0596    0.0030   34.1303 H   0  0  0  0  0  0  0  0  0  0  0  0
   -5.4817   -2.6223   34.2102 H   0  0  0  0  0  0  0  0  0  0  0  0
   -6.0719   -1.7774   32.7755 H   0  0  0  0  0  0  0  0  0  0  0  0
   -0.2639   -1.5575   31.1459 H   0  0  0  0  0  0  0  0  0  0  0  0
    0.0314   -1.7596   28.5897 H   0  0  0  0  0  0  0  0  0  0  0  0
   -0.0236    1.2952   28.8097 H   0  0  0  0  0  0  0  0  0  0  0  0
   -1.2022    0.2561   27.9882 H   0  0  0  0  0  0  0  0  0  0  0  0
    0.4191    0.4252   27.3330 H   0  0  0  0  0  0  0  0  0  0  0  0
    2.1894    0.1082   29.7546 H   0  0  0  0  0  0  0  0  0  0  0  0
    2.1889   -1.6378   29.9036 H   0  0  0  0  0  0  0  0  0  0  0  0
    4.0735    0.8709   27.7615 H   0  0  0  0  0  0  0  0  0  0  0  0
    5.0306   -0.4494   25.7882 H   0  0  0  0  0  0  0  0  0  0  0  0
    3.7756   -2.6249   25.4332 H   0  0  0  0  0  0  0  0  0  0  0  0
   -0.6575    0.2694   33.2270 H   0  0  0  0  0  0  0  0  0  0  0  0
   -1.6801    0.0605   35.4912 H   0  0  0  0  0  0  0  0  0  0  0  0
  1  2  1  0
  2  3  1  0
  3  4  1  0
  4  5  1  0
  5  6  1  0
  6  7  2  0
  7  8  1  0
  8  9  2  0
  8 10  1  0
 10 11  1  0
 11 12  1  0
 11 13  1  0
 13 14  1  0
 14 15  2  0
 15 16  1  0
 16 17  1  0
 17 18  2  0
  7 19  1  0
 19 20  2  0
 20 21  1  0
 21 22  2  0
 21  5  1  0
 18 14  1  0
  1 23  1  0
  1 24  1  0
  1 25  1  0
  3 26  1  0
  3 27  1  0
  4 28  1  0
  4 29  1  0
 10 30  1  0
 11 31  1  0
 12 32  1  0
 12 33  1  0
 12 34  1  0
 13 35  1  0
 13 36  1  0
 15 37  1  0
 16 38  1  0
 17 39  1  0
 19 40  1  0
 20 41  1  0
M  END
>  <Energy>  (97) 
122.31084626970693

>  <compound_id>  (97) 
48758

>  <target_id>  (97) 
1

>  <reference_id>  (97) 
7

>  <inspiration_ids>  (97) 
[7, 114]

>  <energy_score>  (97) 
5.473380894988509

>  <distance_score>  (97) 
11.698637988237659

>  <path>  (97) 
/opt/xchem-fragalysis-2/maxwin/BulkDock/SCRATCH/511020/C48758-P7/C48758-P7.minimised.mol

>  <scratch_subdir>  (97) 
/opt/xchem-fragalysis-2/maxwin/BulkDock/SCRATCH/511020/C48758-P7

>  <fragmenstein_runtime>  (97) 
8.912485837936401

>  <fragmenstein_outcome>  (97) 
too moved

>  <fragmenstein_mode>  (97) 
expansion

>  <fragmenstein_error>  (97) 


$$$$
C48758-P114
     RDKit          3D

 41 42  0  0  0  0  0  0  0  0999 V2000
   -8.8731   -0.9739   35.7634 C   0  0  0  0  0  0  0  0  0  0  0  0
   -8.0037   -1.6052   34.8248 O   0  0  0  0  0  0  0  0  0  0  0  0
   -6.8662   -0.7968   34.4692 C   0  0  0  0  0  0  0  0  0  0  0  0
   -5.8193   -1.5747   33.5957 C   0  0  0  0  0  0  0  0  0  0  0  0
   -4.4355   -0.9954   33.5577 N   0  0  0  0  0  0  0  0  0  0  0  0
   -3.7230   -0.9226   32.2943 N   0  0  0  0  0  0  0  0  0  0  0  0
   -2.4833   -0.4674   32.2822 C   0  0  0  0  0  0  0  0  0  0  0  0
   -1.6227   -0.1001   30.9457 C   0  0  0  0  0  0  0  0  0  0  0  0
   -2.1620    0.6892   30.2239 O   0  0  0  0  0  0  0  0  0  0  0  0
   -0.2836   -0.7055   30.8723 N   0  0  0  0  0  0  0  0  0  0  0  0
    0.8967   -0.4434   29.9059 C   0  0  0  0  0  0  0  0  0  0  0  0
    1.2734    1.0369   30.0477 C   0  0  0  0  0  0  0  0  0  0  0  0
    0.8969   -0.8484   28.3712 C   0  0  0  0  0  0  0  0  0  0  0  0
    2.2620   -0.9395   27.6523 C   0  0  0  0  0  0  0  0  0  0  0  0
    2.9336   -2.0820   27.2582 C   0  0  0  0  0  0  0  0  0  0  0  0
    4.0095   -1.6809   26.5103 N   0  0  0  0  0  0  0  0  0  0  0  0
    3.9992   -0.3161   26.5108 C   0  0  0  0  0  0  0  0  0  0  0  0
    2.9587    0.1615   27.1685 N   0  0  0  0  0  0  0  0  0  0  0  0
   -1.8133   -0.0292   33.5314 C   0  0  0  0  0  0  0  0  0  0  0  0
   -2.4484   -0.1924   34.6928 C   0  0  0  0  0  0  0  0  0  0  0  0
   -3.7865   -0.7978   34.7708 C   0  0  0  0  0  0  0  0  0  0  0  0
   -4.2320   -1.0833   35.8775 O   0  0  0  0  0  0  0  0  0  0  0  0
   -8.3835   -0.9155   36.7398 H   0  0  0  0  0  0  0  0  0  0  0  0
   -9.7808   -1.5758   35.8552 H   0  0  0  0  0  0  0  0  0  0  0  0
   -9.1470    0.0305   35.4289 H   0  0  0  0  0  0  0  0  0  0  0  0
   -6.4162   -0.4275   35.3934 H   0  0  0  0  0  0  0  0  0  0  0  0
   -7.2094    0.0785   33.9058 H   0  0  0  0  0  0  0  0  0  0  0  0
   -5.7192   -2.5912   33.9886 H   0  0  0  0  0  0  0  0  0  0  0  0
   -6.1899   -1.6553   32.5681 H   0  0  0  0  0  0  0  0  0  0  0  0
   -0.1288   -1.2699   31.6984 H   0  0  0  0  0  0  0  0  0  0  0  0
    1.7038   -1.0269   30.3689 H   0  0  0  0  0  0  0  0  0  0  0  0
    0.5087    1.6802   29.5992 H   0  0  0  0  0  0  0  0  0  0  0  0
    1.3628    1.3166   31.1034 H   0  0  0  0  0  0  0  0  0  0  0  0
    2.2310    1.2574   29.5675 H   0  0  0  0  0  0  0  0  0  0  0  0
    0.2601   -0.1492   27.8152 H   0  0  0  0  0  0  0  0  0  0  0  0
    0.4139   -1.8311   28.2922 H   0  0  0  0  0  0  0  0  0  0  0  0
    2.6866   -3.1213   27.3887 H   0  0  0  0  0  0  0  0  0  0  0  0
    4.6911   -2.2895   26.0644 H   0  0  0  0  0  0  0  0  0  0  0  0
    4.7634    0.2687   26.0184 H   0  0  0  0  0  0  0  0  0  0  0  0
   -0.8343    0.4290   33.4688 H   0  0  0  0  0  0  0  0  0  0  0  0
   -2.0017    0.1000   35.6358 H   0  0  0  0  0  0  0  0  0  0  0  0
  1  2  1  0
  2  3  1  0
  3  4  1  0
  4  5  1  0
  5  6  1  0
  6  7  2  0
  7  8  1  0
  8  9  2  0
  8 10  1  0
 10 11  1  0
 11 12  1  0
 11 13  1  0
 13 14  1  0
 14 15  2  0
 15 16  1  0
 16 17  1  0
 17 18  2  0
  7 19  1  0
 19 20  2  0
 20 21  1  0
 21 22  2  0
 21  5  1  0
 18 14  1  0
  1 23  1  0
  1 24  1  0
  1 25  1  0
  3 26  1  0
  3 27  1  0
  4 28  1  0
  4 29  1  0
 10 30  1  0
 11 31  1  0
 12 32  1  0
 12 33  1  0
 12 34  1  0
 13 35  1  0
 13 36  1  0
 15 37  1  0
 16 38  1  0
 17 39  1  0
 19 40  1  0
 20 41  1  0
M  END
>  <Energy>  (98) 
125.14974886319732

>  <compound_id>  (98) 
48758

>  <target_id>  (98) 
1

>  <reference_id>  (98) 
114

>  <inspiration_ids>  (98) 
[7, 114]

>  <energy_score>  (98) 
8.312283488480716

>  <distance_score>  (98) 
11.683416016888442

>  <path>  (98) 
/opt/xchem-fragalysis-2/maxwin/BulkDock/SCRATCH/511020/C48758-P114/C48758-P114.minimised.mol

>  <scratch_subdir>  (98) 
/opt/xchem-fragalysis-2/maxwin/BulkDock/SCRATCH/511020/C48758-P114

>  <fragmenstein_runtime>  (98) 
10.347105503082275

>  <fragmenstein_outcome>  (98) 
too moved

>  <fragmenstein_mode>  (98) 
expansion

>  <fragmenstein_error>  (98) 


$$$$
C12637-P7
     RDKit          3D

 46 47  0  0  0  0  0  0  0  0999 V2000
  -11.2016   -2.9274   37.1653 C   0  0  0  0  0  0  0  0  0  0  0  0
   -9.9072   -2.3201   37.1336 O   0  0  0  0  0  0  0  0  0  0  0  0
   -9.7493   -1.4461   36.0111 C   0  0  0  0  0  0  0  0  0  0  0  0
   -8.5477   -0.4989   36.2097 C   0  0  0  0  0  0  0  0  0  0  0  0
   -7.2273   -0.7386   35.4812 C   0  0  0  0  0  0  0  0  0  0  0  0
   -7.1215   -1.0372   34.1165 C   0  0  0  0  0  0  0  0  0  0  0  0
   -5.8654   -1.1509   33.4501 C   0  0  0  0  0  0  0  0  0  0  0  0
   -4.6703   -0.9305   34.1232 C   0  0  0  0  0  0  0  0  0  0  0  0
   -3.3829   -0.9984   33.6271 O   0  0  0  0  0  0  0  0  0  0  0  0
   -3.0763   -1.2543   32.2264 C   0  0  0  0  0  0  0  0  0  0  0  0
   -1.5222   -1.3766   32.0231 C   0  0  0  0  0  0  0  0  0  0  0  0
   -0.9631   -1.8034   30.6084 C   0  0  0  0  0  0  0  0  0  0  0  0
   -0.0963   -0.7259   29.8625 C   0  0  0  0  0  0  0  0  0  0  0  0
   -0.3720    0.4222   30.0852 O   0  0  0  0  0  0  0  0  0  0  0  0
    0.9150   -1.3095   28.9792 N   0  0  0  0  0  0  0  0  0  0  0  0
    1.8383   -0.6777   28.0212 C   0  0  0  0  0  0  0  0  0  0  0  0
    2.8492   -1.5424   27.2718 C   0  0  0  0  0  0  0  0  0  0  0  0
    3.3397   -2.7302   27.5921 N   0  0  0  0  0  0  0  0  0  0  0  0
    4.3080   -3.0240   26.6492 C   0  0  0  0  0  0  0  0  0  0  0  0
    4.4203   -2.0133   25.7342 C   0  0  0  0  0  0  0  0  0  0  0  0
    3.4840   -1.0910   26.1172 N   0  0  0  0  0  0  0  0  0  0  0  0
   -4.7742   -0.6100   35.4846 C   0  0  0  0  0  0  0  0  0  0  0  0
   -6.0191   -0.5106   36.1500 C   0  0  0  0  0  0  0  0  0  0  0  0
  -11.3651   -3.5197   36.2606 H   0  0  0  0  0  0  0  0  0  0  0  0
  -11.9786   -2.1637   37.2647 H   0  0  0  0  0  0  0  0  0  0  0  0
  -11.2460   -3.5861   38.0359 H   0  0  0  0  0  0  0  0  0  0  0  0
  -10.6527   -0.8286   35.9366 H   0  0  0  0  0  0  0  0  0  0  0  0
   -9.6555   -2.0416   35.1035 H   0  0  0  0  0  0  0  0  0  0  0  0
   -8.8629    0.5035   35.8881 H   0  0  0  0  0  0  0  0  0  0  0  0
   -8.3450   -0.4254   37.2860 H   0  0  0  0  0  0  0  0  0  0  0  0
   -8.0178   -1.1867   33.5259 H   0  0  0  0  0  0  0  0  0  0  0  0
   -5.8706   -1.4274   32.4030 H   0  0  0  0  0  0  0  0  0  0  0  0
   -3.4370   -0.4076   31.6382 H   0  0  0  0  0  0  0  0  0  0  0  0
   -3.5634   -2.1831   31.9129 H   0  0  0  0  0  0  0  0  0  0  0  0
   -1.1734   -2.1248   32.7481 H   0  0  0  0  0  0  0  0  0  0  0  0
   -1.0596   -0.4377   32.3505 H   0  0  0  0  0  0  0  0  0  0  0  0
   -0.3438   -2.6971   30.7485 H   0  0  0  0  0  0  0  0  0  0  0  0
   -1.7930   -2.0701   29.9449 H   0  0  0  0  0  0  0  0  0  0  0  0
    0.8114   -2.3177   28.9766 H   0  0  0  0  0  0  0  0  0  0  0  0
    2.3853    0.0876   28.5840 H   0  0  0  0  0  0  0  0  0  0  0  0
    1.2048   -0.1432   27.3080 H   0  0  0  0  0  0  0  0  0  0  0  0
    4.8670   -3.9495   26.6905 H   0  0  0  0  0  0  0  0  0  0  0  0
    5.0336   -1.8633   24.8598 H   0  0  0  0  0  0  0  0  0  0  0  0
    3.2957   -0.2318   25.6188 H   0  0  0  0  0  0  0  0  0  0  0  0
   -3.8626   -0.4321   36.0538 H   0  0  0  0  0  0  0  0  0  0  0  0
   -6.0166   -0.2449   37.2064 H   0  0  0  0  0  0  0  0  0  0  0  0
  1  2  1  0
  2  3  1  0
  3  4  1  0
  4  5  1  0
  5  6  2  0
  6  7  1  0
  7  8  2  0
  8  9  1  0
  9 10  1  0
 10 11  1  0
 11 12  1  0
 12 13  1  0
 13 14  2  0
 13 15  1  0
 15 16  1  0
 16 17  1  0
 17 18  2  0
 18 19  1  0
 19 20  2  0
 20 21  1  0
  8 22  1  0
 22 23  2  0
 23  5  1  0
 21 17  1  0
  1 24  1  0
  1 25  1  0
  1 26  1  0
  3 27  1  0
  3 28  1  0
  4 29  1  0
  4 30  1  0
  6 31  1  0
  7 32  1  0
 10 33  1  0
 10 34  1  0
 11 35  1  0
 11 36  1  0
 12 37  1  0
 12 38  1  0
 15 39  1  0
 16 40  1  0
 16 41  1  0
 19 42  1  0
 20 43  1  0
 21 44  1  0
 22 45  1  0
 23 46  1  0
M  END
>  <Energy>  (99) 
40.496232119301759

>  <compound_id>  (99) 
12637

>  <target_id>  (99) 
1

>  <reference_id>  (99) 
7

>  <inspiration_ids>  (99) 
[7, 114]

>  <energy_score>  (99) 
-21.665460861799033

>  <distance_score>  (99) 
9.861663007816746

>  <path>  (99) 
/opt/xchem-fragalysis-2/maxwin/BulkDock/SCRATCH/511020/C12637-P7/C12637-P7.minimised.mol

>  <scratch_subdir>  (99) 
/opt/xchem-fragalysis-2/maxwin/BulkDock/SCRATCH/511020/C12637-P7

>  <fragmenstein_runtime>  (99) 
16.370011806488037

>  <fragmenstein_outcome>  (99) 
too moved

>  <fragmenstein_mode>  (99) 
expansion

>  <fragmenstein_error>  (99) 


$$$$
C12637-P114
     RDKit          3D

 46 47  0  0  0  0  0  0  0  0999 V2000
   -5.1836   -1.6648   33.9714 C   0  0  0  0  0  0  0  0  0  0  0  0
   -4.4475   -2.3563   32.9644 O   0  0  0  0  0  0  0  0  0  0  0  0
   -3.1500   -1.7637   32.6864 C   0  0  0  0  0  0  0  0  0  0  0  0
   -2.4774   -2.5233   31.5072 C   0  0  0  0  0  0  0  0  0  0  0  0
   -1.1484   -2.1481   30.8024 C   0  0  0  0  0  0  0  0  0  0  0  0
    0.0579   -1.8526   31.4383 C   0  0  0  0  0  0  0  0  0  0  0  0
    1.3136   -1.7389   30.7001 C   0  0  0  0  0  0  0  0  0  0  0  0
    1.4591   -1.9336   29.2978 C   0  0  0  0  0  0  0  0  0  0  0  0
    2.7536   -1.8309   28.7288 O   0  0  0  0  0  0  0  0  0  0  0  0
    3.2275   -2.2795   27.3351 C   0  0  0  0  0  0  0  0  0  0  0  0
    4.8198   -1.8735   26.9755 C   0  0  0  0  0  0  0  0  0  0  0  0
    5.8946   -2.4942   25.7740 C   0  0  0  0  0  0  0  0  0  0  0  0
    5.5894   -2.1569   24.2527 C   0  0  0  0  0  0  0  0  0  0  0  0
    4.3961   -1.9942   24.0970 O   0  0  0  0  0  0  0  0  0  0  0  0
    6.8040   -2.0965   23.1718 N   0  0  0  0  0  0  0  0  0  0  0  0
    6.7913   -1.6810   21.5357 C   0  0  0  0  0  0  0  0  0  0  0  0
    7.5474   -0.6395   20.2341 C   0  0  0  0  0  0  0  0  0  0  0  0
    8.3363   -0.9575   19.2116 N   0  0  0  0  0  0  0  0  0  0  0  0
    8.0974   -0.0655   17.7857 C   0  0  0  0  0  0  0  0  0  0  0  0
    7.1929    0.8256   18.1362 C   0  0  0  0  0  0  0  0  0  0  0  0
    6.8142    0.1740   19.2869 N   0  0  0  0  0  0  0  0  0  0  0  0
    0.2467   -2.1871   28.6689 C   0  0  0  0  0  0  0  0  0  0  0  0
   -1.0138   -2.2888   29.3971 C   0  0  0  0  0  0  0  0  0  0  0  0
   -6.1456   -2.1602   34.1030 H   0  0  0  0  0  0  0  0  0  0  0  0
   -5.3622   -0.6308   33.6616 H   0  0  0  0  0  0  0  0  0  0  0  0
   -4.6358   -1.6833   34.9175 H   0  0  0  0  0  0  0  0  0  0  0  0
   -2.5245   -1.8278   33.5830 H   0  0  0  0  0  0  0  0  0  0  0  0
   -3.2846   -0.7104   32.4166 H   0  0  0  0  0  0  0  0  0  0  0  0
   -2.3750   -3.5744   31.8093 H   0  0  0  0  0  0  0  0  0  0  0  0
   -3.2359   -2.5253   30.7259 H   0  0  0  0  0  0  0  0  0  0  0  0
    0.0972   -1.7471   32.5207 H   0  0  0  0  0  0  0  0  0  0  0  0
    2.2155   -1.5224   31.2742 H   0  0  0  0  0  0  0  0  0  0  0  0
    2.5782   -1.7916   26.6075 H   0  0  0  0  0  0  0  0  0  0  0  0
    3.1236   -3.3673   27.3041 H   0  0  0  0  0  0  0  0  0  0  0  0
    5.3594   -2.0342   27.9188 H   0  0  0  0  0  0  0  0  0  0  0  0
    4.8098   -0.7865   26.8200 H   0  0  0  0  0  0  0  0  0  0  0  0
    5.8961   -3.5836   25.8822 H   0  0  0  0  0  0  0  0  0  0  0  0
    6.8920   -2.1116   26.0132 H   0  0  0  0  0  0  0  0  0  0  0  0
    7.6722   -2.3619   23.6216 H   0  0  0  0  0  0  0  0  0  0  0  0
    6.5900   -2.6182   21.0329 H   0  0  0  0  0  0  0  0  0  0  0  0
    5.8820   -1.1020   21.6552 H   0  0  0  0  0  0  0  0  0  0  0  0
    8.6636   -0.2479   16.8749 H   0  0  0  0  0  0  0  0  0  0  0  0
    6.6523    1.5927   17.6045 H   0  0  0  0  0  0  0  0  0  0  0  0
    5.8771   -0.1098   19.2252 H   0  0  0  0  0  0  0  0  0  0  0  0
    0.2321   -2.3226   27.5944 H   0  0  0  0  0  0  0  0  0  0  0  0
   -1.8961   -2.5223   28.8015 H   0  0  0  0  0  0  0  0  0  0  0  0
  1  2  1  0
  2  3  1  0
  3  4  1  0
  4  5  1  0
  5  6  2  0
  6  7  1  0
  7  8  2  0
  8  9  1  0
  9 10  1  0
 10 11  1  0
 11 12  1  0
 12 13  1  0
 13 14  2  0
 13 15  1  0
 15 16  1  0
 16 17  1  0
 17 18  2  0
 18 19  1  0
 19 20  2  0
 20 21  1  0
  8 22  1  0
 22 23  2  0
 23  5  1  0
 21 17  1  0
  1 24  1  0
  1 25  1  0
  1 26  1  0
  3 27  1  0
  3 28  1  0
  4 29  1  0
  4 30  1  0
  6 31  1  0
  7 32  1  0
 10 33  1  0
 10 34  1  0
 11 35  1  0
 11 36  1  0
 12 37  1  0
 12 38  1  0
 15 39  1  0
 16 40  1  0
 16 41  1  0
 19 42  1  0
 20 43  1  0
 21 44  1  0
 22 45  1  0
 23 46  1  0
M  END
>  <Energy>  (100) 
266.91012910754483

>  <compound_id>  (100) 
12637

>  <target_id>  (100) 
1

>  <reference_id>  (100) 
114

>  <inspiration_ids>  (100) 
[7, 114]

>  <energy_score>  (100) 
204.74843612644588

>  <distance_score>  (100) 
11.059860284767435

>  <path>  (100) 
/opt/xchem-fragalysis-2/maxwin/BulkDock/SCRATCH/511020/C12637-P114/C12637-P114.minimised.mol

>  <scratch_subdir>  (100) 
/opt/xchem-fragalysis-2/maxwin/BulkDock/SCRATCH/511020/C12637-P114

>  <fragmenstein_runtime>  (100) 
12.732011079788208

>  <fragmenstein_outcome>  (100) 
too moved

>  <fragmenstein_mode>  (100) 
expansion

>  <fragmenstein_error>  (100) 


$$$$
C32335-P7
     RDKit          3D

 40 41  0  0  0  0  0  0  0  0999 V2000
   -7.8838   -0.9143   35.3825 C   0  0  0  0  0  0  0  0  0  0  0  0
   -6.6880   -0.4889   34.7179 O   0  0  0  0  0  0  0  0  0  0  0  0
   -6.1350   -1.5104   33.8962 C   0  0  0  0  0  0  0  0  0  0  0  0
   -4.7335   -1.2467   33.2906 C   0  0  0  0  0  0  0  0  0  0  0  0
   -4.4767   -0.1809   32.1562 C   0  0  0  0  0  0  0  0  0  0  0  0
   -3.1543   -0.4691   31.4416 N   0  0  0  0  0  0  0  0  0  0  0  0
   -2.4827    0.2331   30.3534 C   0  0  0  0  0  0  0  0  0  0  0  0
   -2.7595    1.2597   29.7969 O   0  0  0  0  0  0  0  0  0  0  0  0
   -1.2123   -0.4986   29.8431 C   0  0  0  0  0  0  0  0  0  0  0  0
   -0.3533    0.1277   28.9944 C   0  0  0  0  0  0  0  0  0  0  0  0
    0.8090   -0.4587   28.3594 C   0  0  0  0  0  0  0  0  0  0  0  0
    1.2121   -1.7084   28.1999 N   0  0  0  0  0  0  0  0  0  0  0  0
    2.3799   -1.6623   27.4545 C   0  0  0  0  0  0  0  0  0  0  0  0
    2.7315   -0.3651   27.1855 C   0  0  0  0  0  0  0  0  0  0  0  0
    1.7306    0.3849   27.7467 N   0  0  0  0  0  0  0  0  0  0  0  0
   -4.4988    1.2414   32.7547 C   0  0  0  0  0  0  0  0  0  0  0  0
   -5.9351    1.7577   32.6638 C   0  0  0  0  0  0  0  0  0  0  0  0
   -6.6780    0.8173   31.7287 C   0  0  0  0  0  0  0  0  0  0  0  0
   -5.6229   -0.1135   31.1307 C   0  0  0  0  0  0  0  0  0  0  0  0
   -8.4115   -0.0246   35.7355 H   0  0  0  0  0  0  0  0  0  0  0  0
   -8.5332   -1.4757   34.7074 H   0  0  0  0  0  0  0  0  0  0  0  0
   -7.6236   -1.5269   36.2474 H   0  0  0  0  0  0  0  0  0  0  0  0
   -6.8378   -1.7495   33.0952 H   0  0  0  0  0  0  0  0  0  0  0  0
   -6.0037   -2.3861   34.5357 H   0  0  0  0  0  0  0  0  0  0  0  0
   -4.4083   -2.2142   32.8811 H   0  0  0  0  0  0  0  0  0  0  0  0
   -4.0419   -1.0295   34.1157 H   0  0  0  0  0  0  0  0  0  0  0  0
   -2.5939   -1.2668   31.7166 H   0  0  0  0  0  0  0  0  0  0  0  0
   -1.0650   -1.5313   30.1317 H   0  0  0  0  0  0  0  0  0  0  0  0
   -0.5611    1.1668   28.7449 H   0  0  0  0  0  0  0  0  0  0  0  0
    2.8933   -2.5634   27.1472 H   0  0  0  0  0  0  0  0  0  0  0  0
    3.5530    0.0665   26.6307 H   0  0  0  0  0  0  0  0  0  0  0  0
    1.6702    1.3918   27.7234 H   0  0  0  0  0  0  0  0  0  0  0  0
   -4.1252    1.2741   33.7839 H   0  0  0  0  0  0  0  0  0  0  0  0
   -3.8540    1.9153   32.1778 H   0  0  0  0  0  0  0  0  0  0  0  0
   -5.9435    2.7816   32.2730 H   0  0  0  0  0  0  0  0  0  0  0  0
   -6.4121    1.7963   33.6475 H   0  0  0  0  0  0  0  0  0  0  0  0
   -7.2108    1.3655   30.9445 H   0  0  0  0  0  0  0  0  0  0  0  0
   -7.4298    0.2540   32.2839 H   0  0  0  0  0  0  0  0  0  0  0  0
   -6.0318   -1.0998   30.8878 H   0  0  0  0  0  0  0  0  0  0  0  0
   -5.2773    0.3225   30.1856 H   0  0  0  0  0  0  0  0  0  0  0  0
  1  2  1  0
  2  3  1  0
  3  4  1  0
  4  5  1  0
  5  6  1  0
  6  7  1  0
  7  8  2  0
  7  9  1  0
  9 10  2  3
 10 11  1  0
 11 12  2  0
 12 13  1  0
 13 14  2  0
 14 15  1  0
  5 16  1  0
 16 17  1  0
 17 18  1  0
 18 19  1  0
 19  5  1  0
 15 11  1  0
  1 20  1  0
  1 21  1  0
  1 22  1  0
  3 23  1  0
  3 24  1  0
  4 25  1  0
  4 26  1  0
  6 27  1  0
  9 28  1  0
 10 29  1  0
 13 30  1  0
 14 31  1  0
 15 32  1  0
 16 33  1  0
 16 34  1  0
 17 35  1  0
 17 36  1  0
 18 37  1  0
 18 38  1  0
 19 39  1  0
 19 40  1  0
M  END
>  <Energy>  (101) 
5.6618278275513116

>  <compound_id>  (101) 
32335

>  <target_id>  (101) 
1

>  <reference_id>  (101) 
7

>  <inspiration_ids>  (101) 
[7, 114]

>  <energy_score>  (101) 
-28.110763380074786

>  <distance_score>  (101) 
12.087989601462493

>  <path>  (101) 
/opt/xchem-fragalysis-2/maxwin/BulkDock/SCRATCH/511020/C32335-P7/C32335-P7.minimised.mol

>  <scratch_subdir>  (101) 
/opt/xchem-fragalysis-2/maxwin/BulkDock/SCRATCH/511020/C32335-P7

>  <fragmenstein_runtime>  (101) 
10.09005618095398

>  <fragmenstein_outcome>  (101) 
too moved

>  <fragmenstein_mode>  (101) 
expansion

>  <fragmenstein_error>  (101) 


$$$$
C32335-P114
     RDKit          3D

 40 41  0  0  0  0  0  0  0  0999 V2000
   -6.6264   -3.2337   28.9324 C   0  0  0  0  0  0  0  0  0  0  0  0
   -5.5827   -3.3257   27.9608 O   0  0  0  0  0  0  0  0  0  0  0  0
   -5.5350   -2.2066   27.0674 C   0  0  0  0  0  0  0  0  0  0  0  0
   -4.2726   -2.2301   26.1193 C   0  0  0  0  0  0  0  0  0  0  0  0
   -4.2145   -2.9934   24.6761 C   0  0  0  0  0  0  0  0  0  0  0  0
   -2.7269   -3.0140   23.9652 N   0  0  0  0  0  0  0  0  0  0  0  0
   -2.0062   -2.0497   22.6180 C   0  0  0  0  0  0  0  0  0  0  0  0
   -2.6773   -1.1846   22.1986 O   0  0  0  0  0  0  0  0  0  0  0  0
   -0.1368   -2.0473   21.6002 C   0  0  0  0  0  0  0  0  0  0  0  0
    0.5180   -1.0888   20.0380 C   0  0  0  0  0  0  0  0  0  0  0  0
    1.3597   -1.2284   18.6020 C   0  0  0  0  0  0  0  0  0  0  0  0
    2.0007   -0.2998   17.8965 N   0  0  0  0  0  0  0  0  0  0  0  0
    2.4609   -0.8893   16.7445 C   0  0  0  0  0  0  0  0  0  0  0  0
    1.8529   -2.1022   16.5734 C   0  0  0  0  0  0  0  0  0  0  0  0
    1.0086   -2.2093   17.6481 N   0  0  0  0  0  0  0  0  0  0  0  0
   -4.5011   -4.4929   25.0160 C   0  0  0  0  0  0  0  0  0  0  0  0
   -6.0118   -4.6760   25.0731 C   0  0  0  0  0  0  0  0  0  0  0  0
   -6.5774   -3.5870   24.1831 C   0  0  0  0  0  0  0  0  0  0  0  0
   -5.4011   -2.6968   23.7534 C   0  0  0  0  0  0  0  0  0  0  0  0
   -7.5947   -3.1058   28.4417 H   0  0  0  0  0  0  0  0  0  0  0  0
   -6.4158   -2.4126   29.6211 H   0  0  0  0  0  0  0  0  0  0  0  0
   -6.6214   -4.1726   29.4829 H   0  0  0  0  0  0  0  0  0  0  0  0
   -6.4626   -2.1265   26.4982 H   0  0  0  0  0  0  0  0  0  0  0  0
   -5.4521   -1.3027   27.6842 H   0  0  0  0  0  0  0  0  0  0  0  0
   -3.4368   -2.6165   26.7172 H   0  0  0  0  0  0  0  0  0  0  0  0
   -4.0418   -1.1834   25.9098 H   0  0  0  0  0  0  0  0  0  0  0  0
   -2.1073   -3.7601   24.1721 H   0  0  0  0  0  0  0  0  0  0  0  0
   -1.0022   -1.6193   21.4458 H   0  0  0  0  0  0  0  0  0  0  0  0
   -0.0250   -0.6684   19.2180 H   0  0  0  0  0  0  0  0  0  0  0  0
    3.1670   -0.3874   16.0965 H   0  0  0  0  0  0  0  0  0  0  0  0
    1.9063   -2.8515   15.7982 H   0  0  0  0  0  0  0  0  0  0  0  0
    0.3912   -2.9748   17.8758 H   0  0  0  0  0  0  0  0  0  0  0  0
   -4.1099   -5.1309   24.2115 H   0  0  0  0  0  0  0  0  0  0  0  0
   -4.0097   -4.8251   25.9368 H   0  0  0  0  0  0  0  0  0  0  0  0
   -6.2946   -5.6707   24.7113 H   0  0  0  0  0  0  0  0  0  0  0  0
   -6.4059   -4.6003   26.0870 H   0  0  0  0  0  0  0  0  0  0  0  0
   -7.0599   -4.0174   23.2981 H   0  0  0  0  0  0  0  0  0  0  0  0
   -7.3498   -3.0125   24.7043 H   0  0  0  0  0  0  0  0  0  0  0  0
   -5.1421   -2.9001   22.7082 H   0  0  0  0  0  0  0  0  0  0  0  0
   -5.7475   -1.6675   23.8320 H   0  0  0  0  0  0  0  0  0  0  0  0
  1  2  1  0
  2  3  1  0
  3  4  1  0
  4  5  1  0
  5  6  1  0
  6  7  1  0
  7  8  2  0
  7  9  1  0
  9 10  2  3
 10 11  1  0
 11 12  2  0
 12 13  1  0
 13 14  2  0
 14 15  1  0
  5 16  1  0
 16 17  1  0
 17 18  1  0
 18 19  1  0
 19  5  1  0
 15 11  1  0
  1 20  1  0
  1 21  1  0
  1 22  1  0
  3 23  1  0
  3 24  1  0
  4 25  1  0
  4 26  1  0
  6 27  1  0
  9 28  1  0
 10 29  1  0
 13 30  1  0
 14 31  1  0
 15 32  1  0
 16 33  1  0
 16 34  1  0
 17 35  1  0
 17 36  1  0
 18 37  1  0
 18 38  1  0
 19 39  1  0
 19 40  1  0
M  END
>  <Energy>  (102) 
564.33043486278029

>  <compound_id>  (102) 
32335

>  <target_id>  (102) 
1

>  <reference_id>  (102) 
114

>  <inspiration_ids>  (102) 
[7, 114]

>  <energy_score>  (102) 
530.5578436551563

>  <distance_score>  (102) 
13.347769188596859

>  <path>  (102) 
/opt/xchem-fragalysis-2/maxwin/BulkDock/SCRATCH/511020/C32335-P114/C32335-P114.minimised.mol

>  <scratch_subdir>  (102) 
/opt/xchem-fragalysis-2/maxwin/BulkDock/SCRATCH/511020/C32335-P114

>  <fragmenstein_runtime>  (102) 
8.858048677444458

>  <fragmenstein_outcome>  (102) 
too moved

>  <fragmenstein_mode>  (102) 
expansion

>  <fragmenstein_error>  (102) 


$$$$
C32336-P7
     RDKit          3D

 39 40  0  0  0  0  0  0  0  0999 V2000
  -11.9020    4.7770   29.2507 C   0  0  0  0  0  0  0  0  0  0  0  0
  -10.4967    4.8594   29.5183 O   0  0  0  0  0  0  0  0  0  0  0  0
   -9.7164    4.1241   28.5572 C   0  0  0  0  0  0  0  0  0  0  0  0
   -8.2156    4.1703   28.9444 C   0  0  0  0  0  0  0  0  0  0  0  0
   -7.1938    3.2231   28.1541 C   0  0  0  0  0  0  0  0  0  0  0  0
   -6.5898    3.9414   26.8314 C   0  0  0  0  0  0  0  0  0  0  0  0
   -7.3352    4.7642   26.3671 O   0  0  0  0  0  0  0  0  0  0  0  0
   -5.3036    3.4359   26.3414 N   0  0  0  0  0  0  0  0  0  0  0  0
   -4.4827    3.8450   25.1869 C   0  0  0  0  0  0  0  0  0  0  0  0
   -3.0473    3.3315   25.0172 C   0  0  0  0  0  0  0  0  0  0  0  0
   -2.2321    2.7541   25.8841 N   0  0  0  0  0  0  0  0  0  0  0  0
   -0.9874    2.7043   25.2814 C   0  0  0  0  0  0  0  0  0  0  0  0
   -1.0493    3.1654   23.9915 C   0  0  0  0  0  0  0  0  0  0  0  0
   -2.3589    3.5299   23.8216 N   0  0  0  0  0  0  0  0  0  0  0  0
   -7.9284    1.9254   27.7843 C   0  0  0  0  0  0  0  0  0  0  0  0
   -8.0095    1.1176   29.0761 C   0  0  0  0  0  0  0  0  0  0  0  0
   -6.9079    1.6406   29.9958 C   0  0  0  0  0  0  0  0  0  0  0  0
   -6.1623    2.7083   29.1820 C   0  0  0  0  0  0  0  0  0  0  0  0
  -12.2269    3.7571   29.0387 H   0  0  0  0  0  0  0  0  0  0  0  0
  -12.4429    5.1588   30.1205 H   0  0  0  0  0  0  0  0  0  0  0  0
  -12.1363    5.4115   28.3905 H   0  0  0  0  0  0  0  0  0  0  0  0
   -9.8605    4.5679   27.5662 H   0  0  0  0  0  0  0  0  0  0  0  0
  -10.0996    3.1049   28.5453 H   0  0  0  0  0  0  0  0  0  0  0  0
   -8.1424    3.9941   30.0226 H   0  0  0  0  0  0  0  0  0  0  0  0
   -7.8751    5.2100   28.8413 H   0  0  0  0  0  0  0  0  0  0  0  0
   -4.9128    2.8086   27.0268 H   0  0  0  0  0  0  0  0  0  0  0  0
   -4.4540    4.9408   25.2075 H   0  0  0  0  0  0  0  0  0  0  0  0
   -5.0618    3.5641   24.2992 H   0  0  0  0  0  0  0  0  0  0  0  0
   -0.1240    2.3349   25.8207 H   0  0  0  0  0  0  0  0  0  0  0  0
   -0.3087    3.2810   23.2138 H   0  0  0  0  0  0  0  0  0  0  0  0
   -2.7528    3.9504   22.9914 H   0  0  0  0  0  0  0  0  0  0  0  0
   -7.4009    1.3932   27.0025 H   0  0  0  0  0  0  0  0  0  0  0  0
   -8.9093    2.0730   27.3265 H   0  0  0  0  0  0  0  0  0  0  0  0
   -8.9824    1.2710   29.5383 H   0  0  0  0  0  0  0  0  0  0  0  0
   -7.9148    0.0465   28.8824 H   0  0  0  0  0  0  0  0  0  0  0  0
   -6.2302    0.8401   30.3099 H   0  0  0  0  0  0  0  0  0  0  0  0
   -7.3363    2.0676   30.9084 H   0  0  0  0  0  0  0  0  0  0  0  0
   -5.7727    3.5078   29.8213 H   0  0  0  0  0  0  0  0  0  0  0  0
   -5.2979    2.2231   28.7248 H   0  0  0  0  0  0  0  0  0  0  0  0
  1  2  1  0
  2  3  1  0
  3  4  1  0
  4  5  1  0
  5  6  1  0
  6  7  2  0
  6  8  1  0
  8  9  1  0
  9 10  1  0
 10 11  2  0
 11 12  1  0
 12 13  2  0
 13 14  1  0
  5 15  1  0
 15 16  1  0
 16 17  1  0
 17 18  1  0
 18  5  1  0
 14 10  1  0
  1 19  1  0
  1 20  1  0
  1 21  1  0
  3 22  1  0
  3 23  1  0
  4 24  1  0
  4 25  1  0
  8 26  1  0
  9 27  1  0
  9 28  1  0
 12 29  1  0
 13 30  1  0
 14 31  1  0
 15 32  1  0
 15 33  1  0
 16 34  1  0
 16 35  1  0
 17 36  1  0
 17 37  1  0
 18 38  1  0
 18 39  1  0
M  END
>  <Energy>  (103) 
28.729868863448726

>  <compound_id>  (103) 
32336

>  <target_id>  (103) 
1

>  <reference_id>  (103) 
7

>  <inspiration_ids>  (103) 
[7, 114]

>  <energy_score>  (103) 
4.928636539279751

>  <distance_score>  (103) 
14.137027864873303

>  <path>  (103) 
/opt/xchem-fragalysis-2/maxwin/BulkDock/SCRATCH/511020/C32336-P7/C32336-P7.minimised.mol

>  <scratch_subdir>  (103) 
/opt/xchem-fragalysis-2/maxwin/BulkDock/SCRATCH/511020/C32336-P7

>  <fragmenstein_runtime>  (103) 
11.579482555389404

>  <fragmenstein_outcome>  (103) 
too moved

>  <fragmenstein_mode>  (103) 
expansion

>  <fragmenstein_error>  (103) 


$$$$
C32336-P114
     RDKit          3D

 39 40  0  0  0  0  0  0  0  0999 V2000
   -8.6794   -1.1040   35.4612 C   0  0  0  0  0  0  0  0  0  0  0  0
   -7.4289   -1.5860   34.9723 O   0  0  0  0  0  0  0  0  0  0  0  0
   -7.0483   -1.0415   33.6953 C   0  0  0  0  0  0  0  0  0  0  0  0
   -5.6028   -1.4651   33.3132 C   0  0  0  0  0  0  0  0  0  0  0  0
   -4.7111   -0.5396   32.3106 C   0  0  0  0  0  0  0  0  0  0  0  0
   -4.2252   -1.3725   31.0121 C   0  0  0  0  0  0  0  0  0  0  0  0
   -5.0921   -2.1015   30.6024 O   0  0  0  0  0  0  0  0  0  0  0  0
   -2.8963   -1.0728   30.4698 N   0  0  0  0  0  0  0  0  0  0  0  0
   -2.1690   -1.6452   29.3061 C   0  0  0  0  0  0  0  0  0  0  0  0
   -0.7927   -1.1469   28.8522 C   0  0  0  0  0  0  0  0  0  0  0  0
    0.3012   -1.8943   28.7308 N   0  0  0  0  0  0  0  0  0  0  0  0
    1.2312   -1.1559   28.0328 C   0  0  0  0  0  0  0  0  0  0  0  0
    0.7286    0.0914   27.7648 C   0  0  0  0  0  0  0  0  0  0  0  0
   -0.5563    0.0745   28.2517 N   0  0  0  0  0  0  0  0  0  0  0  0
   -3.6599    0.1801   33.1690 C   0  0  0  0  0  0  0  0  0  0  0  0
   -4.4546    1.2716   33.8878 C   0  0  0  0  0  0  0  0  0  0  0  0
   -5.4200    1.7863   32.8274 C   0  0  0  0  0  0  0  0  0  0  0  0
   -5.5059    0.6785   31.7690 C   0  0  0  0  0  0  0  0  0  0  0  0
   -9.5021   -1.6258   34.9714 H   0  0  0  0  0  0  0  0  0  0  0  0
   -8.7660   -0.0219   35.3265 H   0  0  0  0  0  0  0  0  0  0  0  0
   -8.7301   -1.3018   36.5341 H   0  0  0  0  0  0  0  0  0  0  0  0
   -7.1327    0.0407   33.7718 H   0  0  0  0  0  0  0  0  0  0  0  0
   -7.7295   -1.4064   32.9250 H   0  0  0  0  0  0  0  0  0  0  0  0
   -5.0398   -1.6039   34.2465 H   0  0  0  0  0  0  0  0  0  0  0  0
   -5.6566   -2.4834   32.9097 H   0  0  0  0  0  0  0  0  0  0  0  0
   -2.4022   -0.4796   31.1176 H   0  0  0  0  0  0  0  0  0  0  0  0
   -2.0628   -2.7099   29.5367 H   0  0  0  0  0  0  0  0  0  0  0  0
   -2.8603   -1.5784   28.4586 H   0  0  0  0  0  0  0  0  0  0  0  0
    2.1991   -1.5644   27.7702 H   0  0  0  0  0  0  0  0  0  0  0  0
    1.1441    0.9505   27.2595 H   0  0  0  0  0  0  0  0  0  0  0  0
   -1.2336    0.8177   28.1655 H   0  0  0  0  0  0  0  0  0  0  0  0
   -2.8922    0.6705   32.5618 H   0  0  0  0  0  0  0  0  0  0  0  0
   -3.1420   -0.4847   33.8672 H   0  0  0  0  0  0  0  0  0  0  0  0
   -3.8045    2.0657   34.2678 H   0  0  0  0  0  0  0  0  0  0  0  0
   -5.0018    0.8590   34.7422 H   0  0  0  0  0  0  0  0  0  0  0  0
   -6.3952    2.0384   33.2543 H   0  0  0  0  0  0  0  0  0  0  0  0
   -5.0289    2.7017   32.3680 H   0  0  0  0  0  0  0  0  0  0  0  0
   -5.0521    1.0483   30.8396 H   0  0  0  0  0  0  0  0  0  0  0  0
   -6.5411    0.4304   31.5164 H   0  0  0  0  0  0  0  0  0  0  0  0
  1  2  1  0
  2  3  1  0
  3  4  1  0
  4  5  1  0
  5  6  1  0
  6  7  2  0
  6  8  1  0
  8  9  1  0
  9 10  1  0
 10 11  2  0
 11 12  1  0
 12 13  2  0
 13 14  1  0
  5 15  1  0
 15 16  1  0
 16 17  1  0
 17 18  1  0
 18  5  1  0
 14 10  1  0
  1 19  1  0
  1 20  1  0
  1 21  1  0
  3 22  1  0
  3 23  1  0
  4 24  1  0
  4 25  1  0
  8 26  1  0
  9 27  1  0
  9 28  1  0
 12 29  1  0
 13 30  1  0
 14 31  1  0
 15 32  1  0
 15 33  1  0
 16 34  1  0
 16 35  1  0
 17 36  1  0
 17 37  1  0
 18 38  1  0
 18 39  1  0
M  END
>  <Energy>  (104) 
39.214547873413409

>  <compound_id>  (104) 
32336

>  <target_id>  (104) 
1

>  <reference_id>  (104) 
114

>  <inspiration_ids>  (104) 
[7, 114]

>  <energy_score>  (104) 
15.413315549246647

>  <distance_score>  (104) 
12.67109836373603

>  <path>  (104) 
/opt/xchem-fragalysis-2/maxwin/BulkDock/SCRATCH/511020/C32336-P114/C32336-P114.minimised.mol

>  <scratch_subdir>  (104) 
/opt/xchem-fragalysis-2/maxwin/BulkDock/SCRATCH/511020/C32336-P114

>  <fragmenstein_runtime>  (104) 
8.475019931793213

>  <fragmenstein_outcome>  (104) 
too moved

>  <fragmenstein_mode>  (104) 
expansion

>  <fragmenstein_error>  (104) 


$$$$
C32339-P7
     RDKit          3D

 35 36  0  0  0  0  0  0  0  0999 V2000
   -5.3262    0.2938   28.3558 C   0  0  0  0  0  0  0  0  0  0  0  0
   -4.0746    0.9683   28.8832 C   0  0  0  0  0  0  0  0  0  0  0  0
   -3.0627   -0.0260   29.0349 O   0  0  0  0  0  0  0  0  0  0  0  0
   -1.8066    0.5262   29.4793 C   0  0  0  0  0  0  0  0  0  0  0  0
   -0.9341    1.0261   28.3158 C   0  0  0  0  0  0  0  0  0  0  0  0
   -1.3293    1.7376   27.2756 N   0  0  0  0  0  0  0  0  0  0  0  0
   -0.2748    2.1337   26.4283 N   0  0  0  0  0  0  0  0  0  0  0  0
    0.9253    1.7102   26.8123 C   0  0  0  0  0  0  0  0  0  0  0  0
    2.3636    1.9341   25.9974 C   0  0  0  0  0  0  0  0  0  0  0  0
    2.2796    1.7870   24.4901 N   0  0  0  0  0  0  0  0  0  0  0  0
    3.3252    2.0098   23.1861 C   0  0  0  0  0  0  0  0  0  0  0  0
    4.7706    0.8890   22.5481 C   0  0  0  0  0  0  0  0  0  0  0  0
    6.1475    1.6565   21.9835 N   0  0  0  0  0  0  0  0  0  0  0  0
    7.2696    1.1087   21.1929 C   0  0  0  0  0  0  0  0  0  0  0  0
    6.7092   -0.0715   20.7235 C   0  0  0  0  0  0  0  0  0  0  0  0
    5.0352    0.0684   21.4660 N   0  0  0  0  0  0  0  0  0  0  0  0
    2.5487    2.8201   22.0511 C   0  0  0  0  0  0  0  0  0  0  0  0
    3.1098    4.0243   21.7750 F   0  0  0  0  0  0  0  0  0  0  0  0
    1.3071    3.1646   22.5356 F   0  0  0  0  0  0  0  0  0  0  0  0
    2.3282    2.1520   20.9182 F   0  0  0  0  0  0  0  0  0  0  0  0
    0.8029    0.8041   28.3135 S   0  0  0  0  0  0  0  0  0  0  0  0
   -5.6584   -0.4938   29.0403 H   0  0  0  0  0  0  0  0  0  0  0  0
   -6.1364    1.0176   28.2307 H   0  0  0  0  0  0  0  0  0  0  0  0
   -5.1280   -0.1848   27.3909 H   0  0  0  0  0  0  0  0  0  0  0  0
   -4.2833    1.4282   29.8552 H   0  0  0  0  0  0  0  0  0  0  0  0
   -3.7538    1.7444   28.1822 H   0  0  0  0  0  0  0  0  0  0  0  0
   -1.2809   -0.2829   29.9976 H   0  0  0  0  0  0  0  0  0  0  0  0
   -1.9699    1.3362   30.1996 H   0  0  0  0  0  0  0  0  0  0  0  0
    3.0792    1.2029   26.3864 H   0  0  0  0  0  0  0  0  0  0  0  0
    2.6959    2.9479   26.2438 H   0  0  0  0  0  0  0  0  0  0  0  0
    1.5499    2.4795   24.2587 H   0  0  0  0  0  0  0  0  0  0  0  0
    3.7095    2.9135   23.6518 H   0  0  0  0  0  0  0  0  0  0  0  0
    8.1561    1.6168   21.4425 H   0  0  0  0  0  0  0  0  0  0  0  0
    6.9943   -1.0740   20.4517 H   0  0  0  0  0  0  0  0  0  0  0  0
    4.5012    0.6105   20.8598 H   0  0  0  0  0  0  0  0  0  0  0  0
  1  2  1  0
  2  3  1  0
  3  4  1  0
  4  5  1  0
  5  6  2  0
  6  7  1  0
  7  8  2  0
  8  9  1  0
  9 10  1  0
 10 11  1  0
 11 12  1  0
 12 13  2  0
 13 14  1  0
 14 15  2  0
 15 16  1  0
 11 17  1  0
 17 18  1  0
 17 19  1  0
 17 20  1  0
  8 21  1  0
 21  5  1  0
 16 12  1  0
  1 22  1  0
  1 23  1  0
  1 24  1  0
  2 25  1  0
  2 26  1  0
  4 27  1  0
  4 28  1  0
  9 29  1  0
  9 30  1  0
 10 31  1  0
 11 32  1  0
 14 33  1  0
 15 34  1  0
 16 35  1  0
M  END
>  <Energy>  (105) 
416.16527568009428

>  <compound_id>  (105) 
32339

>  <target_id>  (105) 
1

>  <reference_id>  (105) 
7

>  <inspiration_ids>  (105) 
[7, 114]

>  <energy_score>  (105) 
240.33662370327323

>  <distance_score>  (105) 
13.281528149654658

>  <path>  (105) 
/opt/xchem-fragalysis-2/maxwin/BulkDock/SCRATCH/511020/C32339-P7/C32339-P7.minimised.mol

>  <scratch_subdir>  (105) 
/opt/xchem-fragalysis-2/maxwin/BulkDock/SCRATCH/511020/C32339-P7

>  <fragmenstein_runtime>  (105) 
6.414062261581421

>  <fragmenstein_outcome>  (105) 
too moved

>  <fragmenstein_mode>  (105) 
expansion

>  <fragmenstein_error>  (105) 


$$$$
C32339-P114
     RDKit          3D

 35 36  0  0  0  0  0  0  0  0999 V2000
   -7.5594    1.2022   37.2959 C   0  0  0  0  0  0  0  0  0  0  0  0
   -6.6651    0.0593   36.8496 C   0  0  0  0  0  0  0  0  0  0  0  0
   -7.4142   -0.9514   36.1762 O   0  0  0  0  0  0  0  0  0  0  0  0
   -7.6893   -0.6771   34.8035 C   0  0  0  0  0  0  0  0  0  0  0  0
   -6.4760   -0.8037   33.9139 C   0  0  0  0  0  0  0  0  0  0  0  0
   -5.5873   -1.7766   33.9131 N   0  0  0  0  0  0  0  0  0  0  0  0
   -4.6664   -1.6741   32.8673 N   0  0  0  0  0  0  0  0  0  0  0  0
   -4.8684   -0.6198   32.1009 C   0  0  0  0  0  0  0  0  0  0  0  0
   -4.2243   -0.3230   30.7372 C   0  0  0  0  0  0  0  0  0  0  0  0
   -2.7342   -0.5489   30.5208 N   0  0  0  0  0  0  0  0  0  0  0  0
   -2.3728   -0.6124   29.0186 C   0  0  0  0  0  0  0  0  0  0  0  0
   -0.8527   -0.7951   28.6731 C   0  0  0  0  0  0  0  0  0  0  0  0
   -0.2728   -1.9059   28.2325 N   0  0  0  0  0  0  0  0  0  0  0  0
    1.0163   -1.5686   27.8637 C   0  0  0  0  0  0  0  0  0  0  0  0
    1.2313   -0.2286   28.0559 C   0  0  0  0  0  0  0  0  0  0  0  0
    0.0618    0.2461   28.5958 N   0  0  0  0  0  0  0  0  0  0  0  0
   -2.9267    0.5274   28.1050 C   0  0  0  0  0  0  0  0  0  0  0  0
   -2.4615    1.7417   28.4849 F   0  0  0  0  0  0  0  0  0  0  0  0
   -4.2808    0.5800   28.1413 F   0  0  0  0  0  0  0  0  0  0  0  0
   -2.5884    0.3557   26.8040 F   0  0  0  0  0  0  0  0  0  0  0  0
   -6.1997    0.3521   32.6580 S   0  0  0  0  0  0  0  0  0  0  0  0
   -6.9999    1.9096   37.9149 H   0  0  0  0  0  0  0  0  0  0  0  0
   -7.9679    1.7472   36.4399 H   0  0  0  0  0  0  0  0  0  0  0  0
   -8.4102    0.8237   37.8717 H   0  0  0  0  0  0  0  0  0  0  0  0
   -6.2283   -0.4111   37.7367 H   0  0  0  0  0  0  0  0  0  0  0  0
   -5.8354    0.4214   36.2336 H   0  0  0  0  0  0  0  0  0  0  0  0
   -8.1512    0.3104   34.7237 H   0  0  0  0  0  0  0  0  0  0  0  0
   -8.4191   -1.4271   34.4889 H   0  0  0  0  0  0  0  0  0  0  0  0
   -4.4195    0.7274   30.4928 H   0  0  0  0  0  0  0  0  0  0  0  0
   -4.7680   -0.9501   30.0188 H   0  0  0  0  0  0  0  0  0  0  0  0
   -2.4975   -1.4608   30.9235 H   0  0  0  0  0  0  0  0  0  0  0  0
   -2.8466   -1.5377   28.6601 H   0  0  0  0  0  0  0  0  0  0  0  0
    1.7036   -2.3049   27.4655 H   0  0  0  0  0  0  0  0  0  0  0  0
    2.0895    0.4050   27.8825 H   0  0  0  0  0  0  0  0  0  0  0  0
   -0.1166    1.2027   28.8744 H   0  0  0  0  0  0  0  0  0  0  0  0
  1  2  1  0
  2  3  1  0
  3  4  1  0
  4  5  1  0
  5  6  2  0
  6  7  1  0
  7  8  2  0
  8  9  1  0
  9 10  1  0
 10 11  1  0
 11 12  1  0
 12 13  2  0
 13 14  1  0
 14 15  2  0
 15 16  1  0
 11 17  1  0
 17 18  1  0
 17 19  1  0
 17 20  1  0
  8 21  1  0
 21  5  1  0
 16 12  1  0
  1 22  1  0
  1 23  1  0
  1 24  1  0
  2 25  1  0
  2 26  1  0
  4 27  1  0
  4 28  1  0
  9 29  1  0
  9 30  1  0
 10 31  1  0
 11 32  1  0
 14 33  1  0
 15 34  1  0
 16 35  1  0
M  END
>  <Energy>  (106) 
128.00724242792739

>  <compound_id>  (106) 
32339

>  <target_id>  (106) 
1

>  <reference_id>  (106) 
114

>  <inspiration_ids>  (106) 
[7, 114]

>  <energy_score>  (106) 
-47.82140954889371

>  <distance_score>  (106) 
12.565419134281845

>  <path>  (106) 
/opt/xchem-fragalysis-2/maxwin/BulkDock/SCRATCH/511020/C32339-P114/C32339-P114.minimised.mol

>  <scratch_subdir>  (106) 
/opt/xchem-fragalysis-2/maxwin/BulkDock/SCRATCH/511020/C32339-P114

>  <fragmenstein_runtime>  (106) 
7.373460292816162

>  <fragmenstein_outcome>  (106) 
too moved

>  <fragmenstein_mode>  (106) 
expansion

>  <fragmenstein_error>  (106) 


$$$$
C32340-P7
     RDKit          3D

 49 50  0  0  0  0  0  0  0  0999 V2000
   -9.4869   -8.7752   32.5535 C   0  0  0  0  0  0  0  0  0  0  0  0
   -9.8015   -8.4299   31.2174 O   0  0  0  0  0  0  0  0  0  0  0  0
   -9.6156   -9.5347   30.3345 C   0  0  0  0  0  0  0  0  0  0  0  0
   -8.8118   -9.1005   29.0974 C   0  0  0  0  0  0  0  0  0  0  0  0
   -7.2790   -9.2652   29.2266 C   0  0  0  0  0  0  0  0  0  0  0  0
   -6.6715  -10.6739   29.0021 C   0  0  0  0  0  0  0  0  0  0  0  0
   -6.4380  -11.2635   30.0213 O   0  0  0  0  0  0  0  0  0  0  0  0
   -6.5693  -11.1027   27.6270 N   0  0  0  0  0  0  0  0  0  0  0  0
   -6.2550  -12.4248   27.0556 C   0  0  0  0  0  0  0  0  0  0  0  0
   -5.0880  -10.7602   27.0324 C   0  0  0  0  0  0  0  0  0  0  0  0
   -4.6849  -11.0445   25.5008 C   0  0  0  0  0  0  0  0  0  0  0  0
   -3.4794  -10.4511   24.9022 N   0  0  0  0  0  0  0  0  0  0  0  0
   -2.1685  -11.0232   24.6297 C   0  0  0  0  0  0  0  0  0  0  0  0
   -1.7152  -12.1006   24.8984 O   0  0  0  0  0  0  0  0  0  0  0  0
   -1.3080  -10.0366   23.7496 C   0  0  0  0  0  0  0  0  0  0  0  0
    0.0291  -10.6415   23.2600 C   0  0  0  0  0  0  0  0  0  0  0  0
    0.7672   -9.9233   22.1307 C   0  0  0  0  0  0  0  0  0  0  0  0
    0.3375   -8.9874   21.3039 N   0  0  0  0  0  0  0  0  0  0  0  0
    1.2918   -8.8780   20.3147 C   0  0  0  0  0  0  0  0  0  0  0  0
    2.3381   -9.7336   20.5541 C   0  0  0  0  0  0  0  0  0  0  0  0
    2.0388  -10.3199   21.7523 N   0  0  0  0  0  0  0  0  0  0  0  0
   -6.4045   -8.0614   28.9705 C   0  0  0  0  0  0  0  0  0  0  0  0
   -6.6778   -8.4448   30.3809 C   0  0  0  0  0  0  0  0  0  0  0  0
  -10.2421   -9.4615   32.9431 H   0  0  0  0  0  0  0  0  0  0  0  0
   -9.4640   -7.8531   33.1242 H   0  0  0  0  0  0  0  0  0  0  0  0
   -8.4949   -9.2328   32.6258 H   0  0  0  0  0  0  0  0  0  0  0  0
  -10.6174   -9.8413   30.0143 H   0  0  0  0  0  0  0  0  0  0  0  0
   -9.1452  -10.3959   30.8240 H   0  0  0  0  0  0  0  0  0  0  0  0
   -9.0539   -8.0608   28.8456 H   0  0  0  0  0  0  0  0  0  0  0  0
   -9.1239   -9.7162   28.2452 H   0  0  0  0  0  0  0  0  0  0  0  0
   -5.3352  -12.9208   27.3992 H   0  0  0  0  0  0  0  0  0  0  0  0
   -7.0251  -13.0704   27.5060 H   0  0  0  0  0  0  0  0  0  0  0  0
   -6.4925  -12.4930   25.9891 H   0  0  0  0  0  0  0  0  0  0  0  0
   -5.0312   -9.6720   27.1326 H   0  0  0  0  0  0  0  0  0  0  0  0
   -4.3202  -11.1331   27.7294 H   0  0  0  0  0  0  0  0  0  0  0  0
   -4.5465  -12.1201   25.3475 H   0  0  0  0  0  0  0  0  0  0  0  0
   -5.5158  -10.7134   24.8671 H   0  0  0  0  0  0  0  0  0  0  0  0
   -3.5444   -9.5312   24.4495 H   0  0  0  0  0  0  0  0  0  0  0  0
   -1.0912   -9.1430   24.3440 H   0  0  0  0  0  0  0  0  0  0  0  0
   -1.9143   -9.7494   22.8826 H   0  0  0  0  0  0  0  0  0  0  0  0
    0.7078  -10.7263   24.1185 H   0  0  0  0  0  0  0  0  0  0  0  0
   -0.1538  -11.6654   22.9080 H   0  0  0  0  0  0  0  0  0  0  0  0
    1.1618   -8.1983   19.4820 H   0  0  0  0  0  0  0  0  0  0  0  0
    3.2463   -9.9544   20.0121 H   0  0  0  0  0  0  0  0  0  0  0  0
    2.5855  -11.0291   22.2198 H   0  0  0  0  0  0  0  0  0  0  0  0
   -6.8757   -7.1672   28.5840 H   0  0  0  0  0  0  0  0  0  0  0  0
   -5.3974   -8.2570   28.6372 H   0  0  0  0  0  0  0  0  0  0  0  0
   -7.3098   -7.7870   30.9633 H   0  0  0  0  0  0  0  0  0  0  0  0
   -5.8846   -8.9000   30.9655 H   0  0  0  0  0  0  0  0  0  0  0  0
  1  2  1  0
  2  3  1  0
  3  4  1  0
  4  5  1  0
  5  6  1  0
  6  7  2  0
  6  8  1  0
  8  9  1  0
  8 10  1  0
 10 11  1  0
 11 12  1  0
 12 13  1  0
 13 14  2  0
 13 15  1  0
 15 16  1  0
 16 17  1  0
 17 18  2  0
 18 19  1  0
 19 20  2  0
 20 21  1  0
  5 22  1  0
 22 23  1  0
 23  5  1  0
 21 17  1  0
  1 24  1  0
  1 25  1  0
  1 26  1  0
  3 27  1  0
  3 28  1  0
  4 29  1  0
  4 30  1  0
  9 31  1  0
  9 32  1  0
  9 33  1  0
 10 34  1  0
 10 35  1  0
 11 36  1  0
 11 37  1  0
 12 38  1  0
 15 39  1  0
 15 40  1  0
 16 41  1  0
 16 42  1  0
 19 43  1  0
 20 44  1  0
 21 45  1  0
 22 46  1  0
 22 47  1  0
 23 48  1  0
 23 49  1  0
M  END
>  <Energy>  (107) 
99.915928949555479

>  <compound_id>  (107) 
32340

>  <target_id>  (107) 
1

>  <reference_id>  (107) 
7

>  <inspiration_ids>  (107) 
[7, 114]

>  <energy_score>  (107) 
45.68932922516831

>  <distance_score>  (107) 
13.321965562976722

>  <path>  (107) 
/opt/xchem-fragalysis-2/maxwin/BulkDock/SCRATCH/511020/C32340-P7/C32340-P7.minimised.mol

>  <scratch_subdir>  (107) 
/opt/xchem-fragalysis-2/maxwin/BulkDock/SCRATCH/511020/C32340-P7

>  <fragmenstein_runtime>  (107) 
16.249645709991455

>  <fragmenstein_outcome>  (107) 
too moved

>  <fragmenstein_mode>  (107) 
expansion

>  <fragmenstein_error>  (107) 


$$$$
C32340-P114
     RDKit          3D

 49 50  0  0  0  0  0  0  0  0999 V2000
  -11.9717   -3.4760   30.1349 C   0  0  0  0  0  0  0  0  0  0  0  0
  -12.6668   -3.0469   28.9962 O   0  0  0  0  0  0  0  0  0  0  0  0
  -12.5957   -3.9679   27.9170 C   0  0  0  0  0  0  0  0  0  0  0  0
  -11.4397   -4.9836   27.8706 C   0  0  0  0  0  0  0  0  0  0  0  0
  -10.0047   -4.5531   27.3926 C   0  0  0  0  0  0  0  0  0  0  0  0
   -9.6107   -3.0419   27.3378 C   0  0  0  0  0  0  0  0  0  0  0  0
  -10.3958   -2.3693   27.9253 O   0  0  0  0  0  0  0  0  0  0  0  0
   -8.4829   -2.6680   26.5494 N   0  0  0  0  0  0  0  0  0  0  0  0
   -8.0164   -1.3587   26.1345 C   0  0  0  0  0  0  0  0  0  0  0  0
   -6.9972   -2.5809   27.5668 C   0  0  0  0  0  0  0  0  0  0  0  0
   -5.0425   -2.6029   26.8993 C   0  0  0  0  0  0  0  0  0  0  0  0
   -3.8063   -1.8230   25.7086 N   0  0  0  0  0  0  0  0  0  0  0  0
   -3.3448   -2.2676   24.1244 C   0  0  0  0  0  0  0  0  0  0  0  0
   -3.7083   -3.2341   23.5687 O   0  0  0  0  0  0  0  0  0  0  0  0
   -2.3554   -1.2650   22.9839 C   0  0  0  0  0  0  0  0  0  0  0  0
   -2.0413    0.7207   22.2675 C   0  0  0  0  0  0  0  0  0  0  0  0
   -1.1028    2.2602   22.6471 C   0  0  0  0  0  0  0  0  0  0  0  0
   -1.0450    2.7764   23.8621 N   0  0  0  0  0  0  0  0  0  0  0  0
   -0.0234    3.7057   23.8293 C   0  0  0  0  0  0  0  0  0  0  0  0
    0.5525    3.7784   22.5879 C   0  0  0  0  0  0  0  0  0  0  0  0
   -0.1507    2.8871   21.8266 N   0  0  0  0  0  0  0  0  0  0  0  0
   -8.9422   -5.6184   27.5755 C   0  0  0  0  0  0  0  0  0  0  0  0
   -9.5524   -5.4141   26.2252 C   0  0  0  0  0  0  0  0  0  0  0  0
  -10.9425   -3.6631   29.8646 H   0  0  0  0  0  0  0  0  0  0  0  0
  -11.9219   -2.7075   30.8982 H   0  0  0  0  0  0  0  0  0  0  0  0
  -12.4684   -4.3645   30.5238 H   0  0  0  0  0  0  0  0  0  0  0  0
  -12.6316   -3.3937   26.9846 H   0  0  0  0  0  0  0  0  0  0  0  0
  -13.5328   -4.5374   27.9549 H   0  0  0  0  0  0  0  0  0  0  0  0
  -11.3485   -5.5310   28.8062 H   0  0  0  0  0  0  0  0  0  0  0  0
  -11.7909   -5.7508   27.1659 H   0  0  0  0  0  0  0  0  0  0  0  0
   -7.1831   -1.3115   25.4444 H   0  0  0  0  0  0  0  0  0  0  0  0
   -8.1302   -0.5949   26.9114 H   0  0  0  0  0  0  0  0  0  0  0  0
   -8.8299   -1.0407   25.4608 H   0  0  0  0  0  0  0  0  0  0  0  0
   -7.2551   -1.7853   28.2754 H   0  0  0  0  0  0  0  0  0  0  0  0
   -7.0852   -3.4305   28.2680 H   0  0  0  0  0  0  0  0  0  0  0  0
   -4.5378   -2.2361   27.7849 H   0  0  0  0  0  0  0  0  0  0  0  0
   -5.5486   -2.1710   26.0461 H   0  0  0  0  0  0  0  0  0  0  0  0
   -3.2883   -0.9905   25.9856 H   0  0  0  0  0  0  0  0  0  0  0  0
   -2.9591   -1.5388   22.1634 H   0  0  0  0  0  0  0  0  0  0  0  0
   -1.5501   -2.0264   22.8421 H   0  0  0  0  0  0  0  0  0  0  0  0
   -2.8790    1.4600   22.3872 H   0  0  0  0  0  0  0  0  0  0  0  0
   -1.2209    0.7932   23.0447 H   0  0  0  0  0  0  0  0  0  0  0  0
    0.2480    4.2643   24.7161 H   0  0  0  0  0  0  0  0  0  0  0  0
    1.3875    4.3389   22.1921 H   0  0  0  0  0  0  0  0  0  0  0  0
    0.1438    2.5804   20.9047 H   0  0  0  0  0  0  0  0  0  0  0  0
   -7.9190   -5.3378   27.7457 H   0  0  0  0  0  0  0  0  0  0  0  0
   -9.2102   -6.5331   28.0971 H   0  0  0  0  0  0  0  0  0  0  0  0
   -9.0717   -4.8972   25.4071 H   0  0  0  0  0  0  0  0  0  0  0  0
  -10.1887   -6.2091   25.8462 H   0  0  0  0  0  0  0  0  0  0  0  0
  1  2  1  0
  2  3  1  0
  3  4  1  0
  4  5  1  0
  5  6  1  0
  6  7  2  0
  6  8  1  0
  8  9  1  0
  8 10  1  0
 10 11  1  0
 11 12  1  0
 12 13  1  0
 13 14  2  0
 13 15  1  0
 15 16  1  0
 16 17  1  0
 17 18  2  0
 18 19  1  0
 19 20  2  0
 20 21  1  0
  5 22  1  0
 22 23  1  0
 23  5  1  0
 21 17  1  0
  1 24  1  0
  1 25  1  0
  1 26  1  0
  3 27  1  0
  3 28  1  0
  4 29  1  0
  4 30  1  0
  9 31  1  0
  9 32  1  0
  9 33  1  0
 10 34  1  0
 10 35  1  0
 11 36  1  0
 11 37  1  0
 12 38  1  0
 15 39  1  0
 15 40  1  0
 16 41  1  0
 16 42  1  0
 19 43  1  0
 20 44  1  0
 21 45  1  0
 22 46  1  0
 22 47  1  0
 23 48  1  0
 23 49  1  0
M  END
>  <Energy>  (108) 
609.27956507609963

>  <compound_id>  (108) 
32340

>  <target_id>  (108) 
1

>  <reference_id>  (108) 
114

>  <inspiration_ids>  (108) 
[7, 114]

>  <energy_score>  (108) 
555.052965351704

>  <distance_score>  (108) 
12.572756276776317

>  <path>  (108) 
/opt/xchem-fragalysis-2/maxwin/BulkDock/SCRATCH/511020/C32340-P114/C32340-P114.minimised.mol

>  <scratch_subdir>  (108) 
/opt/xchem-fragalysis-2/maxwin/BulkDock/SCRATCH/511020/C32340-P114

>  <fragmenstein_runtime>  (108) 
25.418670892715454

>  <fragmenstein_outcome>  (108) 
too moved

>  <fragmenstein_mode>  (108) 
expansion

>  <fragmenstein_error>  (108) 


$$$$
C32347-P7
     RDKit          3D

 37 38  0  0  0  0  0  0  0  0999 V2000
   -7.8380   -0.8026   35.5250 C   0  0  0  0  0  0  0  0  0  0  0  0
   -6.9208    0.0758   34.6917 C   0  0  0  0  0  0  0  0  0  0  0  0
   -5.7152   -0.6992   34.1511 C   0  0  0  0  0  0  0  0  0  0  0  0
   -4.7471    0.2501   33.4443 C   0  0  0  0  0  0  0  0  0  0  0  0
   -3.5681   -0.3997   32.7356 C   0  0  0  0  0  0  0  0  0  0  0  0
   -3.0145    0.0669   31.6229 N   0  0  0  0  0  0  0  0  0  0  0  0
   -1.9033   -0.7191   31.2082 C   0  0  0  0  0  0  0  0  0  0  0  0
   -1.1872   -0.4269   29.8573 C   0  0  0  0  0  0  0  0  0  0  0  0
    0.2572   -0.6970   29.7494 O   0  0  0  0  0  0  0  0  0  0  0  0
    0.6447   -1.3537   28.4880 C   0  0  0  0  0  0  0  0  0  0  0  0
    0.6170   -2.8555   28.7680 C   0  0  0  0  0  0  0  0  0  0  0  0
    2.0393   -0.9289   27.9205 C   0  0  0  0  0  0  0  0  0  0  0  0
    2.8756    0.0133   28.3303 N   0  0  0  0  0  0  0  0  0  0  0  0
    3.9195    0.0564   27.4241 C   0  0  0  0  0  0  0  0  0  0  0  0
    3.7397   -0.8681   26.4323 C   0  0  0  0  0  0  0  0  0  0  0  0
    2.5748   -1.5083   26.7678 N   0  0  0  0  0  0  0  0  0  0  0  0
   -1.6697   -1.7789   32.0653 C   0  0  0  0  0  0  0  0  0  0  0  0
   -2.7971   -1.8003   33.3641 S   0  0  0  0  0  0  0  0  0  0  0  0
   -7.3198   -1.1752   36.4131 H   0  0  0  0  0  0  0  0  0  0  0  0
   -8.7075   -0.2295   35.8620 H   0  0  0  0  0  0  0  0  0  0  0  0
   -8.1980   -1.6580   34.9471 H   0  0  0  0  0  0  0  0  0  0  0  0
   -7.4896    0.5004   33.8560 H   0  0  0  0  0  0  0  0  0  0  0  0
   -6.5792    0.9149   35.3091 H   0  0  0  0  0  0  0  0  0  0  0  0
   -5.2102   -1.2063   34.9818 H   0  0  0  0  0  0  0  0  0  0  0  0
   -6.0593   -1.4751   33.4565 H   0  0  0  0  0  0  0  0  0  0  0  0
   -5.3124    0.8175   32.6967 H   0  0  0  0  0  0  0  0  0  0  0  0
   -4.3484    0.9780   34.1619 H   0  0  0  0  0  0  0  0  0  0  0  0
   -1.7296   -1.0030   29.0975 H   0  0  0  0  0  0  0  0  0  0  0  0
   -1.3175    0.6363   29.6275 H   0  0  0  0  0  0  0  0  0  0  0  0
   -0.0866   -1.0873   27.7169 H   0  0  0  0  0  0  0  0  0  0  0  0
   -0.3776   -3.1694   29.1023 H   0  0  0  0  0  0  0  0  0  0  0  0
    1.3145   -3.1100   29.5746 H   0  0  0  0  0  0  0  0  0  0  0  0
    0.8855   -3.4490   27.8912 H   0  0  0  0  0  0  0  0  0  0  0  0
    4.7216    0.7737   27.5335 H   0  0  0  0  0  0  0  0  0  0  0  0
    4.2801   -1.0984   25.5246 H   0  0  0  0  0  0  0  0  0  0  0  0
    2.1204   -2.2058   26.1896 H   0  0  0  0  0  0  0  0  0  0  0  0
   -0.9033   -2.5366   31.9843 H   0  0  0  0  0  0  0  0  0  0  0  0
  1  2  1  0
  2  3  1  0
  3  4  1  0
  4  5  1  0
  5  6  2  0
  6  7  1  0
  7  8  1  0
  8  9  1  0
  9 10  1  0
 10 11  1  0
 10 12  1  0
 12 13  2  0
 13 14  1  0
 14 15  2  0
 15 16  1  0
  7 17  2  0
 17 18  1  0
 18  5  1  0
 16 12  1  0
  1 19  1  0
  1 20  1  0
  1 21  1  0
  2 22  1  0
  2 23  1  0
  3 24  1  0
  3 25  1  0
  4 26  1  0
  4 27  1  0
  8 28  1  0
  8 29  1  0
 10 30  1  0
 11 31  1  0
 11 32  1  0
 11 33  1  0
 14 34  1  0
 15 35  1  0
 16 36  1  0
 17 37  1  0
M  END
>  <Energy>  (109) 
49.803526041668405

>  <compound_id>  (109) 
32347

>  <target_id>  (109) 
1

>  <reference_id>  (109) 
7

>  <inspiration_ids>  (109) 
[7, 114]

>  <energy_score>  (109) 
-43.31743442099088

>  <distance_score>  (109) 
12.780574950862174

>  <path>  (109) 
/opt/xchem-fragalysis-2/maxwin/BulkDock/SCRATCH/511020/C32347-P7/C32347-P7.minimised.mol

>  <scratch_subdir>  (109) 
/opt/xchem-fragalysis-2/maxwin/BulkDock/SCRATCH/511020/C32347-P7

>  <fragmenstein_runtime>  (109) 
6.287860155105591

>  <fragmenstein_outcome>  (109) 
too moved

>  <fragmenstein_mode>  (109) 
expansion

>  <fragmenstein_error>  (109) 


$$$$
C32347-P114
     RDKit          3D

 37 38  0  0  0  0  0  0  0  0999 V2000
   -1.8426   -3.1266   34.5143 C   0  0  0  0  0  0  0  0  0  0  0  0
   -3.3052   -3.1082   34.9257 C   0  0  0  0  0  0  0  0  0  0  0  0
   -4.0396   -1.7894   34.6588 C   0  0  0  0  0  0  0  0  0  0  0  0
   -4.3616   -1.4964   33.1903 C   0  0  0  0  0  0  0  0  0  0  0  0
   -3.1653   -1.0464   32.3871 C   0  0  0  0  0  0  0  0  0  0  0  0
   -2.5878   -1.7302   31.4121 N   0  0  0  0  0  0  0  0  0  0  0  0
   -1.5035   -1.0132   30.8466 C   0  0  0  0  0  0  0  0  0  0  0  0
   -0.7120   -1.6176   29.6670 C   0  0  0  0  0  0  0  0  0  0  0  0
    0.6082   -1.0445   29.3608 O   0  0  0  0  0  0  0  0  0  0  0  0
    1.4474   -1.9623   28.5791 C   0  0  0  0  0  0  0  0  0  0  0  0
    2.1067   -2.9665   29.5294 C   0  0  0  0  0  0  0  0  0  0  0  0
    2.5685   -1.2605   27.7692 C   0  0  0  0  0  0  0  0  0  0  0  0
    3.4823   -0.3913   28.1797 N   0  0  0  0  0  0  0  0  0  0  0  0
    4.3511   -0.1912   27.1269 C   0  0  0  0  0  0  0  0  0  0  0  0
    3.9951   -0.9669   26.0597 C   0  0  0  0  0  0  0  0  0  0  0  0
    2.8868   -1.6498   26.4771 N   0  0  0  0  0  0  0  0  0  0  0  0
   -1.3217    0.2218   31.4383 C   0  0  0  0  0  0  0  0  0  0  0  0
   -2.4711    0.4950   32.6848 S   0  0  0  0  0  0  0  0  0  0  0  0
   -1.3487   -4.0079   34.9372 H   0  0  0  0  0  0  0  0  0  0  0  0
   -1.3149   -2.2392   34.8770 H   0  0  0  0  0  0  0  0  0  0  0  0
   -1.7290   -3.1884   33.4303 H   0  0  0  0  0  0  0  0  0  0  0  0
   -3.8343   -3.9391   34.4451 H   0  0  0  0  0  0  0  0  0  0  0  0
   -3.3416   -3.2944   36.0059 H   0  0  0  0  0  0  0  0  0  0  0  0
   -3.4877   -0.9610   35.1183 H   0  0  0  0  0  0  0  0  0  0  0  0
   -4.9981   -1.8413   35.1889 H   0  0  0  0  0  0  0  0  0  0  0  0
   -4.7970   -2.3857   32.7188 H   0  0  0  0  0  0  0  0  0  0  0  0
   -5.1289   -0.7132   33.1412 H   0  0  0  0  0  0  0  0  0  0  0  0
   -0.6083   -2.6879   29.8737 H   0  0  0  0  0  0  0  0  0  0  0  0
   -1.3229   -1.5058   28.7634 H   0  0  0  0  0  0  0  0  0  0  0  0
    0.8014   -2.4895   27.8670 H   0  0  0  0  0  0  0  0  0  0  0  0
    2.7072   -2.4474   30.2856 H   0  0  0  0  0  0  0  0  0  0  0  0
    2.7605   -3.6588   28.9883 H   0  0  0  0  0  0  0  0  0  0  0  0
    1.3650   -3.5585   30.0729 H   0  0  0  0  0  0  0  0  0  0  0  0
    5.1709    0.5100   27.2047 H   0  0  0  0  0  0  0  0  0  0  0  0
    4.3699   -1.0762   25.0546 H   0  0  0  0  0  0  0  0  0  0  0  0
    2.3488   -2.2799   25.8940 H   0  0  0  0  0  0  0  0  0  0  0  0
   -0.5746    0.9640   31.1922 H   0  0  0  0  0  0  0  0  0  0  0  0
  1  2  1  0
  2  3  1  0
  3  4  1  0
  4  5  1  0
  5  6  2  0
  6  7  1  0
  7  8  1  0
  8  9  1  0
  9 10  1  0
 10 11  1  0
 10 12  1  0
 12 13  2  0
 13 14  1  0
 14 15  2  0
 15 16  1  0
  7 17  2  0
 17 18  1  0
 18  5  1  0
 16 12  1  0
  1 19  1  0
  1 20  1  0
  1 21  1  0
  2 22  1  0
  2 23  1  0
  3 24  1  0
  3 25  1  0
  4 26  1  0
  4 27  1  0
  8 28  1  0
  8 29  1  0
 10 30  1  0
 11 31  1  0
 11 32  1  0
 11 33  1  0
 14 34  1  0
 15 35  1  0
 16 36  1  0
 17 37  1  0
M  END
>  <Energy>  (110) 
44.108009092647627

>  <compound_id>  (110) 
32347

>  <target_id>  (110) 
1

>  <reference_id>  (110) 
114

>  <inspiration_ids>  (110) 
[7, 114]

>  <energy_score>  (110) 
-49.01295137001193

>  <distance_score>  (110) 
12.881246469742177

>  <path>  (110) 
/opt/xchem-fragalysis-2/maxwin/BulkDock/SCRATCH/511020/C32347-P114/C32347-P114.minimised.mol

>  <scratch_subdir>  (110) 
/opt/xchem-fragalysis-2/maxwin/BulkDock/SCRATCH/511020/C32347-P114

>  <fragmenstein_runtime>  (110) 
7.49665641784668

>  <fragmenstein_outcome>  (110) 
too moved

>  <fragmenstein_mode>  (110) 
expansion

>  <fragmenstein_error>  (110) 


$$$$
C24039-P7
     RDKit          3D

 36 38  0  0  0  0  0  0  0  0999 V2000
    3.3598   -7.2933   24.1953 C   0  0  0  0  0  0  0  0  0  0  0  0
    2.5340   -8.3437   23.2474 C   0  0  0  0  0  0  0  0  0  0  0  0
    0.7991   -8.1200   23.7215 O   0  0  0  0  0  0  0  0  0  0  0  0
   -0.1252   -7.1925   24.7761 C   0  0  0  0  0  0  0  0  0  0  0  0
   -0.2719   -6.8712   26.5573 C   0  0  0  0  0  0  0  0  0  0  0  0
   -0.0295   -5.6381   27.1443 C   0  0  0  0  0  0  0  0  0  0  0  0
   -0.3060   -5.4045   28.7854 S   0  0  0  0  0  0  0  0  0  0  0  0
   -0.5949   -7.0917   28.8859 C   0  0  0  0  0  0  0  0  0  0  0  0
   -0.8989   -7.5457   30.3252 C   0  0  0  0  0  0  0  0  0  0  0  0
   -0.0976   -6.9693   31.4917 C   0  0  0  0  0  0  0  0  0  0  0  0
   -0.2190   -8.0586   32.5305 C   0  0  0  0  0  0  0  0  0  0  0  0
   -0.2508   -9.3194   31.6966 C   0  0  0  0  0  0  0  0  0  0  0  0
   -0.8828   -8.9803   30.4553 O   0  0  0  0  0  0  0  0  0  0  0  0
   -0.5533   -7.7375   27.6854 N   0  0  0  0  0  0  0  0  0  0  0  0
    3.8644   -9.5779   22.6176 C   0  0  0  0  0  0  0  0  0  0  0  0
    3.7859  -10.8028   22.1150 N   0  0  0  0  0  0  0  0  0  0  0  0
    5.0343  -11.1189   21.6206 C   0  0  0  0  0  0  0  0  0  0  0  0
    5.9301  -10.1050   21.8373 C   0  0  0  0  0  0  0  0  0  0  0  0
    5.2103   -9.1488   22.4918 N   0  0  0  0  0  0  0  0  0  0  0  0
    4.4237   -7.2547   23.8812 H   0  0  0  0  0  0  0  0  0  0  0  0
    3.3508   -6.5369   24.9334 H   0  0  0  0  0  0  0  0  0  0  0  0
    2.4867   -6.6271   24.1139 H   0  0  0  0  0  0  0  0  0  0  0  0
    2.0771   -8.3707   22.2119 H   0  0  0  0  0  0  0  0  0  0  0  0
   -1.1330   -7.5183   24.5411 H   0  0  0  0  0  0  0  0  0  0  0  0
   -0.0413   -6.2149   24.3160 H   0  0  0  0  0  0  0  0  0  0  0  0
    0.5316   -4.8031   26.8311 H   0  0  0  0  0  0  0  0  0  0  0  0
   -1.9262   -7.2594   30.5371 H   0  0  0  0  0  0  0  0  0  0  0  0
    0.9517   -6.7793   31.2600 H   0  0  0  0  0  0  0  0  0  0  0  0
   -0.5116   -6.0194   31.8484 H   0  0  0  0  0  0  0  0  0  0  0  0
   -1.1690   -7.9467   33.0668 H   0  0  0  0  0  0  0  0  0  0  0  0
    0.5884   -8.0535   33.2674 H   0  0  0  0  0  0  0  0  0  0  0  0
   -0.8135  -10.1223   32.1818 H   0  0  0  0  0  0  0  0  0  0  0  0
    0.7565   -9.6907   31.4863 H   0  0  0  0  0  0  0  0  0  0  0  0
    5.2072  -12.0679   21.1298 H   0  0  0  0  0  0  0  0  0  0  0  0
    6.9721   -9.9811   21.5824 H   0  0  0  0  0  0  0  0  0  0  0  0
    5.5483   -8.2234   22.7064 H   0  0  0  0  0  0  0  0  0  0  0  0
  1  2  1  0
  2  3  1  0
  3  4  1  0
  4  5  1  0
  5  6  2  0
  6  7  1  0
  7  8  1  0
  8  9  1  0
  9 10  1  0
 10 11  1  0
 11 12  1  0
 12 13  1  0
  8 14  2  0
  2 15  1  0
 15 16  2  0
 16 17  1  0
 17 18  2  0
 18 19  1  0
 14  5  1  0
 19 15  1  0
 13  9  1  0
  1 20  1  0
  1 21  1  0
  1 22  1  0
  2 23  1  0
  4 24  1  0
  4 25  1  0
  6 26  1  0
  9 27  1  0
 10 28  1  0
 10 29  1  0
 11 30  1  0
 11 31  1  0
 12 32  1  0
 12 33  1  0
 17 34  1  0
 18 35  1  0
 19 36  1  0
M  END
>  <Energy>  (111) 
390.27567879244197

>  <compound_id>  (111) 
24039

>  <target_id>  (111) 
1

>  <reference_id>  (111) 
7

>  <inspiration_ids>  (111) 
[7, 114]

>  <energy_score>  (111) 
273.114848916397

>  <distance_score>  (111) 
14.511459236454893

>  <path>  (111) 
/opt/xchem-fragalysis-2/maxwin/BulkDock/SCRATCH/511020/C24039-P7/C24039-P7.minimised.mol

>  <scratch_subdir>  (111) 
/opt/xchem-fragalysis-2/maxwin/BulkDock/SCRATCH/511020/C24039-P7

>  <fragmenstein_runtime>  (111) 
7.941173791885376

>  <fragmenstein_outcome>  (111) 
too moved

>  <fragmenstein_mode>  (111) 
expansion

>  <fragmenstein_error>  (111) 


$$$$
C24039-P114
     RDKit          3D

 36 38  0  0  0  0  0  0  0  0999 V2000
    2.5449   -2.1530   29.4802 C   0  0  0  0  0  0  0  0  0  0  0  0
    1.9347   -1.6990   28.1551 C   0  0  0  0  0  0  0  0  0  0  0  0
    0.7068   -0.9296   28.2514 O   0  0  0  0  0  0  0  0  0  0  0  0
    0.3874   -0.1970   29.4599 C   0  0  0  0  0  0  0  0  0  0  0  0
   -0.7683   -0.7373   30.3435 C   0  0  0  0  0  0  0  0  0  0  0  0
   -1.3313   -2.0006   30.3421 C   0  0  0  0  0  0  0  0  0  0  0  0
   -2.4539   -2.1810   31.6349 S   0  0  0  0  0  0  0  0  0  0  0  0
   -2.2381   -0.5269   32.0644 C   0  0  0  0  0  0  0  0  0  0  0  0
   -2.9430    0.0484   33.2817 C   0  0  0  0  0  0  0  0  0  0  0  0
   -2.9878    1.5703   33.3007 C   0  0  0  0  0  0  0  0  0  0  0  0
   -4.3273    1.8713   32.6763 C   0  0  0  0  0  0  0  0  0  0  0  0
   -5.1731    0.7386   33.2115 C   0  0  0  0  0  0  0  0  0  0  0  0
   -4.3143   -0.4043   33.3036 O   0  0  0  0  0  0  0  0  0  0  0  0
   -1.3377    0.1054   31.3253 N   0  0  0  0  0  0  0  0  0  0  0  0
    3.0053   -1.0627   27.2396 C   0  0  0  0  0  0  0  0  0  0  0  0
    3.8911   -0.1254   27.5489 N   0  0  0  0  0  0  0  0  0  0  0  0
    4.7894   -0.0666   26.5023 C   0  0  0  0  0  0  0  0  0  0  0  0
    4.4614   -0.9737   25.5339 C   0  0  0  0  0  0  0  0  0  0  0  0
    3.3127   -1.5683   25.9842 N   0  0  0  0  0  0  0  0  0  0  0  0
    2.9942   -1.3195   30.0301 H   0  0  0  0  0  0  0  0  0  0  0  0
    1.7889   -2.6103   30.1258 H   0  0  0  0  0  0  0  0  0  0  0  0
    3.3394   -2.8879   29.3090 H   0  0  0  0  0  0  0  0  0  0  0  0
    1.6181   -2.6173   27.6443 H   0  0  0  0  0  0  0  0  0  0  0  0
    0.0589    0.7914   29.1154 H   0  0  0  0  0  0  0  0  0  0  0  0
    1.2719   -0.0238   30.0784 H   0  0  0  0  0  0  0  0  0  0  0  0
   -1.1024   -2.8261   29.6834 H   0  0  0  0  0  0  0  0  0  0  0  0
   -2.4395   -0.3316   34.1784 H   0  0  0  0  0  0  0  0  0  0  0  0
   -2.9974    1.9182   34.3417 H   0  0  0  0  0  0  0  0  0  0  0  0
   -2.1537    2.0665   32.7971 H   0  0  0  0  0  0  0  0  0  0  0  0
   -4.7174    2.8577   32.9393 H   0  0  0  0  0  0  0  0  0  0  0  0
   -4.2525    1.8096   31.5849 H   0  0  0  0  0  0  0  0  0  0  0  0
   -6.0314    0.5027   32.5782 H   0  0  0  0  0  0  0  0  0  0  0  0
   -5.5396    0.9625   34.2194 H   0  0  0  0  0  0  0  0  0  0  0  0
    5.6206    0.6246   26.5142 H   0  0  0  0  0  0  0  0  0  0  0  0
    4.8981   -1.2268   24.5795 H   0  0  0  0  0  0  0  0  0  0  0  0
    2.7545   -2.2416   25.4688 H   0  0  0  0  0  0  0  0  0  0  0  0
  1  2  1  0
  2  3  1  0
  3  4  1  0
  4  5  1  0
  5  6  2  0
  6  7  1  0
  7  8  1  0
  8  9  1  0
  9 10  1  0
 10 11  1  0
 11 12  1  0
 12 13  1  0
  8 14  2  0
  2 15  1  0
 15 16  2  0
 16 17  1  0
 17 18  2  0
 18 19  1  0
 14  5  1  0
 19 15  1  0
 13  9  1  0
  1 20  1  0
  1 21  1  0
  1 22  1  0
  2 23  1  0
  4 24  1  0
  4 25  1  0
  6 26  1  0
  9 27  1  0
 10 28  1  0
 10 29  1  0
 11 30  1  0
 11 31  1  0
 12 32  1  0
 12 33  1  0
 17 34  1  0
 18 35  1  0
 19 36  1  0
M  END
>  <Energy>  (112) 
70.834159858163929

>  <compound_id>  (112) 
24039

>  <target_id>  (112) 
1

>  <reference_id>  (112) 
114

>  <inspiration_ids>  (112) 
[7, 114]

>  <energy_score>  (112) 
-46.32667001788519

>  <distance_score>  (112) 
12.747801462261206

>  <path>  (112) 
/opt/xchem-fragalysis-2/maxwin/BulkDock/SCRATCH/511020/C24039-P114/C24039-P114.minimised.mol

>  <scratch_subdir>  (112) 
/opt/xchem-fragalysis-2/maxwin/BulkDock/SCRATCH/511020/C24039-P114

>  <fragmenstein_runtime>  (112) 
8.811115980148315

>  <fragmenstein_outcome>  (112) 
too moved

>  <fragmenstein_mode>  (112) 
expansion

>  <fragmenstein_error>  (112) 


$$$$
C32348-P7
     RDKit          3D

 34 36  0  0  0  0  0  0  0  0999 V2000
   -0.2474    0.8596   27.7503 C   0  0  0  0  0  0  0  0  0  0  0  0
    0.8209    0.3453   28.7147 C   0  0  0  0  0  0  0  0  0  0  0  0
    0.1596   -0.5640   29.6745 O   0  0  0  0  0  0  0  0  0  0  0  0
   -0.3063    0.1985   30.8423 C   0  0  0  0  0  0  0  0  0  0  0  0
   -1.5173   -0.2420   31.7166 C   0  0  0  0  0  0  0  0  0  0  0  0
   -2.2726   -1.4111   31.5059 C   0  0  0  0  0  0  0  0  0  0  0  0
   -3.3393   -1.7285   32.3665 C   0  0  0  0  0  0  0  0  0  0  0  0
   -4.3068   -3.1348   32.1492 Cl  0  0  0  0  0  0  0  0  0  0  0  0
   -3.6620   -0.9048   33.4355 C   0  0  0  0  0  0  0  0  0  0  0  0
   -2.9249    0.2530   33.6640 C   0  0  0  0  0  0  0  0  0  0  0  0
   -3.2343    1.0767   34.7559 C   0  0  0  0  0  0  0  0  0  0  0  0
   -2.4845    2.2158   34.9973 C   0  0  0  0  0  0  0  0  0  0  0  0
   -1.4601    2.4956   34.1228 C   0  0  0  0  0  0  0  0  0  0  0  0
   -1.1628    1.7322   33.0458 N   0  0  0  0  0  0  0  0  0  0  0  0
   -1.8556    0.6029   32.8079 C   0  0  0  0  0  0  0  0  0  0  0  0
    2.0082   -0.2422   27.9200 C   0  0  0  0  0  0  0  0  0  0  0  0
    3.0412    0.4690   27.4702 N   0  0  0  0  0  0  0  0  0  0  0  0
    3.7880   -0.3642   26.6680 C   0  0  0  0  0  0  0  0  0  0  0  0
    3.2382   -1.6177   26.6544 C   0  0  0  0  0  0  0  0  0  0  0  0
    2.1047   -1.5263   27.4296 N   0  0  0  0  0  0  0  0  0  0  0  0
   -0.7326    0.0265   27.2319 H   0  0  0  0  0  0  0  0  0  0  0  0
   -1.0413    1.3914   28.2846 H   0  0  0  0  0  0  0  0  0  0  0  0
    0.1755    1.5388   27.0032 H   0  0  0  0  0  0  0  0  0  0  0  0
    1.2455    1.1908   29.2738 H   0  0  0  0  0  0  0  0  0  0  0  0
    0.5645    0.2643   31.5065 H   0  0  0  0  0  0  0  0  0  0  0  0
   -0.5581    1.2117   30.5060 H   0  0  0  0  0  0  0  0  0  0  0  0
   -2.0236   -2.0671   30.6742 H   0  0  0  0  0  0  0  0  0  0  0  0
   -4.4842   -1.1741   34.0942 H   0  0  0  0  0  0  0  0  0  0  0  0
   -4.0468    0.8258   35.4339 H   0  0  0  0  0  0  0  0  0  0  0  0
   -2.6895    2.8611   35.8437 H   0  0  0  0  0  0  0  0  0  0  0  0
   -0.8306    3.3715   34.2558 H   0  0  0  0  0  0  0  0  0  0  0  0
    4.6604   -0.0131   26.1343 H   0  0  0  0  0  0  0  0  0  0  0  0
    3.4968   -2.5233   26.1258 H   0  0  0  0  0  0  0  0  0  0  0  0
    1.4092   -2.2488   27.5487 H   0  0  0  0  0  0  0  0  0  0  0  0
  1  2  1  0
  2  3  1  0
  3  4  1  0
  4  5  1  0
  5  6  2  0
  6  7  1  0
  7  8  1  0
  7  9  2  0
  9 10  1  0
 10 11  2  0
 11 12  1  0
 12 13  2  0
 13 14  1  0
 14 15  2  0
  2 16  1  0
 16 17  2  0
 17 18  1  0
 18 19  2  0
 19 20  1  0
 15  5  1  0
 20 16  1  0
 15 10  1  0
  1 21  1  0
  1 22  1  0
  1 23  1  0
  2 24  1  0
  4 25  1  0
  4 26  1  0
  6 27  1  0
  9 28  1  0
 11 29  1  0
 12 30  1  0
 13 31  1  0
 18 32  1  0
 19 33  1  0
 20 34  1  0
M  END
>  <Energy>  (113) 
52.963586213948744

>  <compound_id>  (113) 
32348

>  <target_id>  (113) 
1

>  <reference_id>  (113) 
7

>  <inspiration_ids>  (113) 
[7, 114]

>  <energy_score>  (113) 
-19.05944957234425

>  <distance_score>  (113) 
12.9665351862696

>  <path>  (113) 
/opt/xchem-fragalysis-2/maxwin/BulkDock/SCRATCH/511020/C32348-P7/C32348-P7.minimised.mol

>  <scratch_subdir>  (113) 
/opt/xchem-fragalysis-2/maxwin/BulkDock/SCRATCH/511020/C32348-P7

>  <fragmenstein_runtime>  (113) 
7.534797191619873

>  <fragmenstein_outcome>  (113) 
too moved

>  <fragmenstein_mode>  (113) 
expansion

>  <fragmenstein_error>  (113) 


$$$$
C32348-P114
     RDKit          3D

 34 36  0  0  0  0  0  0  0  0999 V2000
    0.5460   -4.1620   28.6951 C   0  0  0  0  0  0  0  0  0  0  0  0
    0.6904   -2.6501   28.5247 C   0  0  0  0  0  0  0  0  0  0  0  0
    0.2643   -1.9869   29.7702 O   0  0  0  0  0  0  0  0  0  0  0  0
   -1.1835   -1.7591   29.8057 C   0  0  0  0  0  0  0  0  0  0  0  0
   -2.0262   -1.9492   31.1092 C   0  0  0  0  0  0  0  0  0  0  0  0
   -2.5739   -0.8310   31.7976 C   0  0  0  0  0  0  0  0  0  0  0  0
   -3.5235   -1.0002   32.8209 C   0  0  0  0  0  0  0  0  0  0  0  0
   -4.3423    0.3415   33.5429 Cl  0  0  0  0  0  0  0  0  0  0  0  0
   -3.8907   -2.2738   33.2230 C   0  0  0  0  0  0  0  0  0  0  0  0
   -3.3569   -3.3872   32.5722 C   0  0  0  0  0  0  0  0  0  0  0  0
   -3.7543   -4.6760   32.9546 C   0  0  0  0  0  0  0  0  0  0  0  0
   -3.2576   -5.7817   32.2853 C   0  0  0  0  0  0  0  0  0  0  0  0
   -2.3975   -5.5507   31.2370 C   0  0  0  0  0  0  0  0  0  0  0  0
   -2.0206   -4.3172   30.8315 N   0  0  0  0  0  0  0  0  0  0  0  0
   -2.4449   -3.2350   31.4968 C   0  0  0  0  0  0  0  0  0  0  0  0
    2.1327   -2.3135   28.0434 C   0  0  0  0  0  0  0  0  0  0  0  0
    3.2083   -3.0960   28.0775 N   0  0  0  0  0  0  0  0  0  0  0  0
    4.1422   -2.5422   27.2254 C   0  0  0  0  0  0  0  0  0  0  0  0
    3.6551   -1.3917   26.6659 C   0  0  0  0  0  0  0  0  0  0  0  0
    2.4096   -1.2355   27.2214 N   0  0  0  0  0  0  0  0  0  0  0  0
    0.9643   -4.7143   27.8478 H   0  0  0  0  0  0  0  0  0  0  0  0
    1.0457   -4.5010   29.6093 H   0  0  0  0  0  0  0  0  0  0  0  0
   -0.5057   -4.4437   28.7788 H   0  0  0  0  0  0  0  0  0  0  0  0
    0.0280   -2.3065   27.7242 H   0  0  0  0  0  0  0  0  0  0  0  0
   -1.3128   -0.7177   29.4842 H   0  0  0  0  0  0  0  0  0  0  0  0
   -1.6806   -2.3576   29.0315 H   0  0  0  0  0  0  0  0  0  0  0  0
   -2.3024    0.1742   31.4816 H   0  0  0  0  0  0  0  0  0  0  0  0
   -4.6181   -2.3986   34.0211 H   0  0  0  0  0  0  0  0  0  0  0  0
   -4.4513   -4.8281   33.7746 H   0  0  0  0  0  0  0  0  0  0  0  0
   -3.5349   -6.7888   32.5740 H   0  0  0  0  0  0  0  0  0  0  0  0
   -1.9667   -6.3721   30.6717 H   0  0  0  0  0  0  0  0  0  0  0  0
    5.0986   -3.0173   27.0548 H   0  0  0  0  0  0  0  0  0  0  0  0
    4.0493   -0.7036   25.9309 H   0  0  0  0  0  0  0  0  0  0  0  0
    1.7466   -0.5156   26.9865 H   0  0  0  0  0  0  0  0  0  0  0  0
  1  2  1  0
  2  3  1  0
  3  4  1  0
  4  5  1  0
  5  6  2  0
  6  7  1  0
  7  8  1  0
  7  9  2  0
  9 10  1  0
 10 11  2  0
 11 12  1  0
 12 13  2  0
 13 14  1  0
 14 15  2  0
  2 16  1  0
 16 17  2  0
 17 18  1  0
 18 19  2  0
 19 20  1  0
 15  5  1  0
 20 16  1  0
 15 10  1  0
  1 21  1  0
  1 22  1  0
  1 23  1  0
  2 24  1  0
  4 25  1  0
  4 26  1  0
  6 27  1  0
  9 28  1  0
 11 29  1  0
 12 30  1  0
 13 31  1  0
 18 32  1  0
 19 33  1  0
 20 34  1  0
M  END
>  <Energy>  (114) 
63.184108960804956

>  <compound_id>  (114) 
32348

>  <target_id>  (114) 
1

>  <reference_id>  (114) 
114

>  <inspiration_ids>  (114) 
[7, 114]

>  <energy_score>  (114) 
-8.838926825489011

>  <distance_score>  (114) 
13.101760637493275

>  <path>  (114) 
/opt/xchem-fragalysis-2/maxwin/BulkDock/SCRATCH/511020/C32348-P114/C32348-P114.minimised.mol

>  <scratch_subdir>  (114) 
/opt/xchem-fragalysis-2/maxwin/BulkDock/SCRATCH/511020/C32348-P114

>  <fragmenstein_runtime>  (114) 
8.665013790130615

>  <fragmenstein_outcome>  (114) 
too moved

>  <fragmenstein_mode>  (114) 
expansion

>  <fragmenstein_error>  (114) 


$$$$
C48760-P7
     RDKit          3D

 47 49  0  0  0  0  0  0  0  0999 V2000
   10.5757   -0.0256   15.5060 C   0  0  0  0  0  0  0  0  0  0  0  0
    9.1242    0.1252   15.9178 C   0  0  0  0  0  0  0  0  0  0  0  0
    9.0004   -0.2209   17.3025 O   0  0  0  0  0  0  0  0  0  0  0  0
    7.7214    0.0491   17.9056 C   0  0  0  0  0  0  0  0  0  0  0  0
    6.7110   -0.2691   19.5488 C   0  0  0  0  0  0  0  0  0  0  0  0
    7.6683    0.0862   20.2749 C   0  0  0  0  0  0  0  0  0  0  0  0
    7.7219    1.4961   21.1392 C   0  0  0  0  0  0  0  0  0  0  0  0
    6.8474    2.4565   20.9492 C   0  0  0  0  0  0  0  0  0  0  0  0
    6.3147    1.9782   19.8999 C   0  0  0  0  0  0  0  0  0  0  0  0
    5.9144    0.6946   20.3602 C   0  0  0  0  0  0  0  0  0  0  0  0
    4.8310    0.6124   22.1048 C   0  0  0  0  0  0  0  0  0  0  0  0
    4.8089   -0.0515   24.0000 N   0  0  0  0  0  0  0  0  0  0  0  0
    3.8760    0.5924   25.1515 C   0  0  0  0  0  0  0  0  0  0  0  0
    2.9812   -0.0489   26.2904 C   0  0  0  0  0  0  0  0  0  0  0  0
    2.1671    0.6804   27.0828 N   0  0  0  0  0  0  0  0  0  0  0  0
    1.5190   -0.1937   27.9219 C   0  0  0  0  0  0  0  0  0  0  0  0
    1.9713   -1.4683   27.6945 C   0  0  0  0  0  0  0  0  0  0  0  0
    2.8749   -1.3777   26.6546 N   0  0  0  0  0  0  0  0  0  0  0  0
    1.5403   -2.6867   28.4149 C   0  0  0  0  0  0  0  0  0  0  0  0
    0.2090   -2.4003   29.1439 C   0  0  0  0  0  0  0  0  0  0  0  0
    0.2071   -1.0326   29.8638 C   0  0  0  0  0  0  0  0  0  0  0  0
    0.4424    0.1487   28.8979 C   0  0  0  0  0  0  0  0  0  0  0  0
   11.2158    0.6392   16.0939 H   0  0  0  0  0  0  0  0  0  0  0  0
   10.9244   -1.0477   15.6862 H   0  0  0  0  0  0  0  0  0  0  0  0
   10.7055    0.2107   14.4461 H   0  0  0  0  0  0  0  0  0  0  0  0
    8.8018    1.1587   15.7677 H   0  0  0  0  0  0  0  0  0  0  0  0
    8.5173   -0.5655   15.3269 H   0  0  0  0  0  0  0  0  0  0  0  0
    7.1139   -0.4030   17.0853 H   0  0  0  0  0  0  0  0  0  0  0  0
    7.8182    1.1567   17.8260 H   0  0  0  0  0  0  0  0  0  0  0  0
    8.5140   -0.4777   20.0165 H   0  0  0  0  0  0  0  0  0  0  0  0
    8.5391    1.6391   21.8867 H   0  0  0  0  0  0  0  0  0  0  0  0
    6.7883    3.4472   21.3733 H   0  0  0  0  0  0  0  0  0  0  0  0
    5.7646    2.5997   19.1926 H   0  0  0  0  0  0  0  0  0  0  0  0
    5.6987    1.1263   22.3428 H   0  0  0  0  0  0  0  0  0  0  0  0
    4.6698   -0.4470   22.0853 H   0  0  0  0  0  0  0  0  0  0  0  0
    4.2591   -0.8938   23.7950 H   0  0  0  0  0  0  0  0  0  0  0  0
    3.3095    1.4382   24.7408 H   0  0  0  0  0  0  0  0  0  0  0  0
    4.6250    0.9225   25.8844 H   0  0  0  0  0  0  0  0  0  0  0  0
    3.3213   -2.1435   26.1691 H   0  0  0  0  0  0  0  0  0  0  0  0
    1.4197   -3.5370   27.7386 H   0  0  0  0  0  0  0  0  0  0  0  0
    2.3066   -2.9565   29.1512 H   0  0  0  0  0  0  0  0  0  0  0  0
   -0.6144   -2.4152   28.4183 H   0  0  0  0  0  0  0  0  0  0  0  0
    0.0115   -3.2006   29.8661 H   0  0  0  0  0  0  0  0  0  0  0  0
   -0.7438   -0.8887   30.3893 H   0  0  0  0  0  0  0  0  0  0  0  0
    0.9964   -1.0379   30.6267 H   0  0  0  0  0  0  0  0  0  0  0  0
    0.7064    1.0492   29.4617 H   0  0  0  0  0  0  0  0  0  0  0  0
   -0.4798    0.3574   28.3431 H   0  0  0  0  0  0  0  0  0  0  0  0
  1  2  1  0
  2  3  1  0
  3  4  1  0
  4  5  1  0
  5  6  2  0
  6  7  1  0
  7  8  2  0
  8  9  1  0
  9 10  2  0
 10 11  1  0
 11 12  1  0
 12 13  1  0
 13 14  1  0
 14 15  2  0
 15 16  1  0
 16 17  2  0
 17 18  1  0
 17 19  1  0
 19 20  1  0
 20 21  1  0
 21 22  1  0
 10  5  1  0
 18 14  1  0
 22 16  1  0
  1 23  1  0
  1 24  1  0
  1 25  1  0
  2 26  1  0
  2 27  1  0
  4 28  1  0
  4 29  1  0
  6 30  1  0
  7 31  1  0
  8 32  1  0
  9 33  1  0
 11 34  1  0
 11 35  1  0
 12 36  1  0
 13 37  1  0
 13 38  1  0
 18 39  1  0
 19 40  1  0
 19 41  1  0
 20 42  1  0
 20 43  1  0
 21 44  1  0
 21 45  1  0
 22 46  1  0
 22 47  1  0
M  END
>  <Energy>  (115) 
589.25366821757382

>  <compound_id>  (115) 
48760

>  <target_id>  (115) 
1

>  <reference_id>  (115) 
7

>  <inspiration_ids>  (115) 
[7, 114]

>  <energy_score>  (115) 
510.6331205825293

>  <distance_score>  (115) 
13.73968008847377

>  <path>  (115) 
/opt/xchem-fragalysis-2/maxwin/BulkDock/SCRATCH/511020/C48760-P7/C48760-P7.minimised.mol

>  <scratch_subdir>  (115) 
/opt/xchem-fragalysis-2/maxwin/BulkDock/SCRATCH/511020/C48760-P7

>  <fragmenstein_runtime>  (115) 
18.33584761619568

>  <fragmenstein_outcome>  (115) 
too moved

>  <fragmenstein_mode>  (115) 
expansion

>  <fragmenstein_error>  (115) 


$$$$
C48760-P114
     RDKit          3D

 47 49  0  0  0  0  0  0  0  0999 V2000
    8.4224   -0.5043   16.0914 C   0  0  0  0  0  0  0  0  0  0  0  0
    8.5005    0.2448   17.4198 C   0  0  0  0  0  0  0  0  0  0  0  0
    8.3016   -0.6960   18.7381 O   0  0  0  0  0  0  0  0  0  0  0  0
    7.8345   -0.3708   20.1890 C   0  0  0  0  0  0  0  0  0  0  0  0
    6.4965   -1.4590   20.8548 C   0  0  0  0  0  0  0  0  0  0  0  0
    6.0339   -1.6554   19.6740 C   0  0  0  0  0  0  0  0  0  0  0  0
    6.0229   -0.4289   19.2088 C   0  0  0  0  0  0  0  0  0  0  0  0
    5.8443    0.8307   20.3487 C   0  0  0  0  0  0  0  0  0  0  0  0
    5.3455    0.4162   21.8069 C   0  0  0  0  0  0  0  0  0  0  0  0
    5.5164   -1.0498   22.1334 C   0  0  0  0  0  0  0  0  0  0  0  0
    4.8173   -2.0235   23.4867 C   0  0  0  0  0  0  0  0  0  0  0  0
    4.2885   -1.3032   24.8239 N   0  0  0  0  0  0  0  0  0  0  0  0
    3.7170   -2.1334   25.8984 C   0  0  0  0  0  0  0  0  0  0  0  0
    2.6206   -1.5922   26.9332 C   0  0  0  0  0  0  0  0  0  0  0  0
    2.1631   -0.3720   27.2382 N   0  0  0  0  0  0  0  0  0  0  0  0
    1.1135   -0.5460   28.1331 C   0  0  0  0  0  0  0  0  0  0  0  0
    0.9418   -1.8756   28.4190 C   0  0  0  0  0  0  0  0  0  0  0  0
    1.9090   -2.5210   27.7025 N   0  0  0  0  0  0  0  0  0  0  0  0
   -0.0847   -2.4718   29.2982 C   0  0  0  0  0  0  0  0  0  0  0  0
   -1.2021   -1.4362   29.5364 C   0  0  0  0  0  0  0  0  0  0  0  0
   -0.6483   -0.0238   29.8244 C   0  0  0  0  0  0  0  0  0  0  0  0
    0.2161    0.5207   28.6674 C   0  0  0  0  0  0  0  0  0  0  0  0
    8.7218    0.1594   15.2758 H   0  0  0  0  0  0  0  0  0  0  0  0
    9.1317   -1.3335   16.0432 H   0  0  0  0  0  0  0  0  0  0  0  0
    7.4347   -0.9268   15.9077 H   0  0  0  0  0  0  0  0  0  0  0  0
    8.0834    1.2413   17.5117 H   0  0  0  0  0  0  0  0  0  0  0  0
    9.5558    0.5273   17.3879 H   0  0  0  0  0  0  0  0  0  0  0  0
    8.5598   -0.3985   20.9336 H   0  0  0  0  0  0  0  0  0  0  0  0
    7.6787    0.7066   20.2731 H   0  0  0  0  0  0  0  0  0  0  0  0
    5.4587   -2.5475   19.4381 H   0  0  0  0  0  0  0  0  0  0  0  0
    5.6659   -0.5369   18.1785 H   0  0  0  0  0  0  0  0  0  0  0  0
    5.8709    1.8519   19.9870 H   0  0  0  0  0  0  0  0  0  0  0  0
    4.5073    0.8848   22.2284 H   0  0  0  0  0  0  0  0  0  0  0  0
    5.5819   -2.7350   23.7971 H   0  0  0  0  0  0  0  0  0  0  0  0
    3.9704   -2.6457   23.2092 H   0  0  0  0  0  0  0  0  0  0  0  0
    3.5642   -0.6704   24.4678 H   0  0  0  0  0  0  0  0  0  0  0  0
    4.5609   -2.4514   26.5217 H   0  0  0  0  0  0  0  0  0  0  0  0
    3.2920   -3.0183   25.4272 H   0  0  0  0  0  0  0  0  0  0  0  0
    2.0467   -3.5173   27.6458 H   0  0  0  0  0  0  0  0  0  0  0  0
   -0.5067   -3.3809   28.8568 H   0  0  0  0  0  0  0  0  0  0  0  0
    0.3727   -2.7448   30.2561 H   0  0  0  0  0  0  0  0  0  0  0  0
   -1.8325   -1.7670   30.3693 H   0  0  0  0  0  0  0  0  0  0  0  0
   -1.8431   -1.3863   28.6465 H   0  0  0  0  0  0  0  0  0  0  0  0
   -1.4755    0.6687   30.0178 H   0  0  0  0  0  0  0  0  0  0  0  0
   -0.0439   -0.0638   30.7399 H   0  0  0  0  0  0  0  0  0  0  0  0
    0.8041    1.3784   29.0100 H   0  0  0  0  0  0  0  0  0  0  0  0
   -0.4360    0.8655   27.8562 H   0  0  0  0  0  0  0  0  0  0  0  0
  1  2  1  0
  2  3  1  0
  3  4  1  0
  4  5  1  0
  5  6  2  0
  6  7  1  0
  7  8  2  0
  8  9  1  0
  9 10  2  0
 10 11  1  0
 11 12  1  0
 12 13  1  0
 13 14  1  0
 14 15  2  0
 15 16  1  0
 16 17  2  0
 17 18  1  0
 17 19  1  0
 19 20  1  0
 20 21  1  0
 21 22  1  0
 10  5  1  0
 18 14  1  0
 22 16  1  0
  1 23  1  0
  1 24  1  0
  1 25  1  0
  2 26  1  0
  2 27  1  0
  4 28  1  0
  4 29  1  0
  6 30  1  0
  7 31  1  0
  8 32  1  0
  9 33  1  0
 11 34  1  0
 11 35  1  0
 12 36  1  0
 13 37  1  0
 13 38  1  0
 18 39  1  0
 19 40  1  0
 19 41  1  0
 20 42  1  0
 20 43  1  0
 21 44  1  0
 21 45  1  0
 22 46  1  0
 22 47  1  0
M  END
>  <Energy>  (116) 
450.91218898612118

>  <compound_id>  (116) 
48760

>  <target_id>  (116) 
1

>  <reference_id>  (116) 
114

>  <inspiration_ids>  (116) 
[7, 114]

>  <energy_score>  (116) 
372.29164135107453

>  <distance_score>  (116) 
13.3294039414932

>  <path>  (116) 
/opt/xchem-fragalysis-2/maxwin/BulkDock/SCRATCH/511020/C48760-P114/C48760-P114.minimised.mol

>  <scratch_subdir>  (116) 
/opt/xchem-fragalysis-2/maxwin/BulkDock/SCRATCH/511020/C48760-P114

>  <fragmenstein_runtime>  (116) 
16.739686727523804

>  <fragmenstein_outcome>  (116) 
too moved

>  <fragmenstein_mode>  (116) 
expansion

>  <fragmenstein_error>  (116) 


$$$$
C48761-P7
     RDKit          3D

 32 33  0  0  0  0  0  0  0  0999 V2000
   -7.1281   -0.6012   35.4356 C   0  0  0  0  0  0  0  0  0  0  0  0
   -5.9213   -0.8883   34.5625 C   0  0  0  0  0  0  0  0  0  0  0  0
   -6.3831   -1.1272   33.2372 O   0  0  0  0  0  0  0  0  0  0  0  0
   -5.4308   -1.8321   32.4115 C   0  0  0  0  0  0  0  0  0  0  0  0
   -4.1436   -1.1291   32.0482 C   0  0  0  0  0  0  0  0  0  0  0  0
   -3.2685   -0.7138   32.9742 N   0  0  0  0  0  0  0  0  0  0  0  0
   -2.1868   -0.2408   32.2275 O   0  0  0  0  0  0  0  0  0  0  0  0
   -2.4738   -0.4476   30.8998 C   0  0  0  0  0  0  0  0  0  0  0  0
   -1.4964    0.1929   29.8908 C   0  0  0  0  0  0  0  0  0  0  0  0
   -0.3260   -0.6101   29.2993 N   0  0  0  0  0  0  0  0  0  0  0  0
    0.5884    0.2854   28.4577 C   0  0  0  0  0  0  0  0  0  0  0  0
    1.7895   -0.3184   27.7270 C   0  0  0  0  0  0  0  0  0  0  0  0
    2.1515   -1.6141   27.4187 C   0  0  0  0  0  0  0  0  0  0  0  0
    3.2018   -1.5230   26.5316 N   0  0  0  0  0  0  0  0  0  0  0  0
    3.5195   -0.2040   26.4014 C   0  0  0  0  0  0  0  0  0  0  0  0
    2.7046    0.5468   27.1130 N   0  0  0  0  0  0  0  0  0  0  0  0
   -3.6771   -0.9868   30.7413 N   0  0  0  0  0  0  0  0  0  0  0  0
   -7.6797    0.2664   35.0586 H   0  0  0  0  0  0  0  0  0  0  0  0
   -7.8219   -1.4485   35.4246 H   0  0  0  0  0  0  0  0  0  0  0  0
   -6.8251   -0.4066   36.4681 H   0  0  0  0  0  0  0  0  0  0  0  0
   -5.2581   -0.0184   34.5680 H   0  0  0  0  0  0  0  0  0  0  0  0
   -5.3833   -1.7591   34.9506 H   0  0  0  0  0  0  0  0  0  0  0  0
   -5.1900   -2.7915   32.8842 H   0  0  0  0  0  0  0  0  0  0  0  0
   -5.9571   -2.0597   31.4783 H   0  0  0  0  0  0  0  0  0  0  0  0
   -1.0751    1.0826   30.3757 H   0  0  0  0  0  0  0  0  0  0  0  0
   -2.1026    0.5387   29.0447 H   0  0  0  0  0  0  0  0  0  0  0  0
    0.2448   -0.9509   30.0738 H   0  0  0  0  0  0  0  0  0  0  0  0
    0.9698    1.0777   29.1135 H   0  0  0  0  0  0  0  0  0  0  0  0
   -0.0384    0.7583   27.6915 H   0  0  0  0  0  0  0  0  0  0  0  0
    1.6946   -2.5650   27.6494 H   0  0  0  0  0  0  0  0  0  0  0  0
    3.5936   -2.2826   25.9929 H   0  0  0  0  0  0  0  0  0  0  0  0
    4.3134    0.1443   25.7543 H   0  0  0  0  0  0  0  0  0  0  0  0
  1  2  1  0
  2  3  1  0
  3  4  1  0
  4  5  1  0
  5  6  2  0
  6  7  1  0
  7  8  1  0
  8  9  1  0
  9 10  1  0
 10 11  1  0
 11 12  1  0
 12 13  2  0
 13 14  1  0
 14 15  1  0
 15 16  2  0
  8 17  2  0
 17  5  1  0
 16 12  1  0
  1 18  1  0
  1 19  1  0
  1 20  1  0
  2 21  1  0
  2 22  1  0
  4 23  1  0
  4 24  1  0
  9 25  1  0
  9 26  1  0
 10 27  1  0
 11 28  1  0
 11 29  1  0
 13 30  1  0
 14 31  1  0
 15 32  1  0
M  END
>  <Energy>  (117) 
81.4417403563357

>  <compound_id>  (117) 
48761

>  <target_id>  (117) 
1

>  <reference_id>  (117) 
7

>  <inspiration_ids>  (117) 
[7, 114]

>  <energy_score>  (117) 
-28.1081765593475

>  <distance_score>  (117) 
12.704677270407963

>  <path>  (117) 
/opt/xchem-fragalysis-2/maxwin/BulkDock/SCRATCH/511020/C48761-P7/C48761-P7.minimised.mol

>  <scratch_subdir>  (117) 
/opt/xchem-fragalysis-2/maxwin/BulkDock/SCRATCH/511020/C48761-P7

>  <fragmenstein_runtime>  (117) 
6.333088636398315

>  <fragmenstein_outcome>  (117) 
too moved

>  <fragmenstein_mode>  (117) 
expansion

>  <fragmenstein_error>  (117) 


$$$$
C48761-P114
     RDKit          3D

 32 33  0  0  0  0  0  0  0  0999 V2000
   -6.6643   -0.1405   35.0844 C   0  0  0  0  0  0  0  0  0  0  0  0
   -5.4126   -0.7669   34.5018 C   0  0  0  0  0  0  0  0  0  0  0  0
   -5.8080   -1.7404   33.5382 O   0  0  0  0  0  0  0  0  0  0  0  0
   -4.6727   -2.3876   32.9227 C   0  0  0  0  0  0  0  0  0  0  0  0
   -3.8391   -1.5639   31.9603 C   0  0  0  0  0  0  0  0  0  0  0  0
   -4.3419   -0.6178   31.1541 N   0  0  0  0  0  0  0  0  0  0  0  0
   -3.2159   -0.1329   30.4623 O   0  0  0  0  0  0  0  0  0  0  0  0
   -2.1252   -0.8586   30.8839 C   0  0  0  0  0  0  0  0  0  0  0  0
   -0.7197   -0.3494   30.4726 C   0  0  0  0  0  0  0  0  0  0  0  0
   -0.0540   -0.7553   29.1450 N   0  0  0  0  0  0  0  0  0  0  0  0
    1.3885   -0.2309   29.0635 C   0  0  0  0  0  0  0  0  0  0  0  0
    2.2291   -0.5301   27.8126 C   0  0  0  0  0  0  0  0  0  0  0  0
    2.8767    0.3736   26.9747 C   0  0  0  0  0  0  0  0  0  0  0  0
    3.5875   -0.3718   26.0663 N   0  0  0  0  0  0  0  0  0  0  0  0
    3.4053   -1.6781   26.4044 C   0  0  0  0  0  0  0  0  0  0  0  0
    2.6419   -1.8067   27.4725 N   0  0  0  0  0  0  0  0  0  0  0  0
   -2.4681   -1.7475   31.8080 N   0  0  0  0  0  0  0  0  0  0  0  0
   -6.4111    0.5962   35.8518 H   0  0  0  0  0  0  0  0  0  0  0  0
   -7.3121   -0.9047   35.5263 H   0  0  0  0  0  0  0  0  0  0  0  0
   -7.2455    0.3544   34.2997 H   0  0  0  0  0  0  0  0  0  0  0  0
   -4.7990    0.0094   34.0335 H   0  0  0  0  0  0  0  0  0  0  0  0
   -4.8348   -1.2500   35.2973 H   0  0  0  0  0  0  0  0  0  0  0  0
   -4.0287   -2.7977   33.7099 H   0  0  0  0  0  0  0  0  0  0  0  0
   -5.0656   -3.2407   32.3618 H   0  0  0  0  0  0  0  0  0  0  0  0
   -0.0411   -0.6536   31.2796 H   0  0  0  0  0  0  0  0  0  0  0  0
   -0.7655    0.7466   30.4824 H   0  0  0  0  0  0  0  0  0  0  0  0
    0.0340   -1.7739   29.1242 H   0  0  0  0  0  0  0  0  0  0  0  0
    1.9388   -0.6329   29.9233 H   0  0  0  0  0  0  0  0  0  0  0  0
    1.3406    0.8587   29.1803 H   0  0  0  0  0  0  0  0  0  0  0  0
    2.8691    1.4528   26.9357 H   0  0  0  0  0  0  0  0  0  0  0  0
    4.0670   -0.0400   25.2378 H   0  0  0  0  0  0  0  0  0  0  0  0
    3.8256   -2.4790   25.8153 H   0  0  0  0  0  0  0  0  0  0  0  0
  1  2  1  0
  2  3  1  0
  3  4  1  0
  4  5  1  0
  5  6  2  0
  6  7  1  0
  7  8  1  0
  8  9  1  0
  9 10  1  0
 10 11  1  0
 11 12  1  0
 12 13  2  0
 13 14  1  0
 14 15  1  0
 15 16  2  0
  8 17  2  0
 17  5  1  0
 16 12  1  0
  1 18  1  0
  1 19  1  0
  1 20  1  0
  2 21  1  0
  2 22  1  0
  4 23  1  0
  4 24  1  0
  9 25  1  0
  9 26  1  0
 10 27  1  0
 11 28  1  0
 11 29  1  0
 13 30  1  0
 14 31  1  0
 15 32  1  0
M  END
>  <Energy>  (118) 
81.568949328552506

>  <compound_id>  (118) 
48761

>  <target_id>  (118) 
1

>  <reference_id>  (118) 
114

>  <inspiration_ids>  (118) 
[7, 114]

>  <energy_score>  (118) 
-27.980967587129157

>  <distance_score>  (118) 
12.758058736363743

>  <path>  (118) 
/opt/xchem-fragalysis-2/maxwin/BulkDock/SCRATCH/511020/C48761-P114/C48761-P114.minimised.mol

>  <scratch_subdir>  (118) 
/opt/xchem-fragalysis-2/maxwin/BulkDock/SCRATCH/511020/C48761-P114

>  <fragmenstein_runtime>  (118) 
5.076232194900513

>  <fragmenstein_outcome>  (118) 
too moved

>  <fragmenstein_mode>  (118) 
expansion

>  <fragmenstein_error>  (118) 


$$$$
C32350-P7
     RDKit          3D

 33 34  0  0  0  0  0  0  0  0999 V2000
  -10.8512   -2.2973   36.7108 C   0  0  0  0  0  0  0  0  0  0  0  0
   -9.6111   -1.5946   36.8120 O   0  0  0  0  0  0  0  0  0  0  0  0
   -8.8151   -1.6654   35.6197 C   0  0  0  0  0  0  0  0  0  0  0  0
   -7.8747   -0.4599   35.5085 C   0  0  0  0  0  0  0  0  0  0  0  0
   -6.9419   -0.5134   34.3123 C   0  0  0  0  0  0  0  0  0  0  0  0
   -7.0111   -1.3837   33.3315 N   0  0  0  0  0  0  0  0  0  0  0  0
   -6.0569   -1.1116   32.3544 C   0  0  0  0  0  0  0  0  0  0  0  0
   -5.2329   -0.0229   32.5713 C   0  0  0  0  0  0  0  0  0  0  0  0
   -4.2528    0.6820   31.6281 C   0  0  0  0  0  0  0  0  0  0  0  0
   -3.1014   -0.1036   31.0423 N   0  0  0  0  0  0  0  0  0  0  0  0
   -2.3577    0.7117   30.0115 C   0  0  0  0  0  0  0  0  0  0  0  0
   -1.1393    0.0956   29.2566 C   0  0  0  0  0  0  0  0  0  0  0  0
   -1.0314   -1.0729   28.6418 N   0  0  0  0  0  0  0  0  0  0  0  0
    0.2304   -1.1150   28.0741 C   0  0  0  0  0  0  0  0  0  0  0  0
    0.8816    0.0771   28.2547 C   0  0  0  0  0  0  0  0  0  0  0  0
    0.0170    0.8301   29.0061 N   0  0  0  0  0  0  0  0  0  0  0  0
   -5.6656    0.6416   34.1228 S   0  0  0  0  0  0  0  0  0  0  0  0
  -11.4732   -1.8531   35.9280 H   0  0  0  0  0  0  0  0  0  0  0  0
  -10.6828   -3.3561   36.5028 H   0  0  0  0  0  0  0  0  0  0  0  0
  -11.3735   -2.2065   37.6667 H   0  0  0  0  0  0  0  0  0  0  0  0
   -8.2014   -2.5619   35.6615 H   0  0  0  0  0  0  0  0  0  0  0  0
   -9.4504   -1.7718   34.7445 H   0  0  0  0  0  0  0  0  0  0  0  0
   -7.2815   -0.3887   36.4289 H   0  0  0  0  0  0  0  0  0  0  0  0
   -8.4728    0.4583   35.4588 H   0  0  0  0  0  0  0  0  0  0  0  0
   -6.0409   -1.7264   31.4628 H   0  0  0  0  0  0  0  0  0  0  0  0
   -3.8226    1.5454   32.1507 H   0  0  0  0  0  0  0  0  0  0  0  0
   -4.8542    1.0754   30.7978 H   0  0  0  0  0  0  0  0  0  0  0  0
   -3.4566   -0.9296   30.5603 H   0  0  0  0  0  0  0  0  0  0  0  0
   -2.0021    1.6244   30.5063 H   0  0  0  0  0  0  0  0  0  0  0  0
   -3.0697    1.0138   29.2329 H   0  0  0  0  0  0  0  0  0  0  0  0
    0.5917   -2.0003   27.5674 H   0  0  0  0  0  0  0  0  0  0  0  0
    1.8591    0.4281   27.9561 H   0  0  0  0  0  0  0  0  0  0  0  0
    0.1944    1.7619   29.3518 H   0  0  0  0  0  0  0  0  0  0  0  0
  1  2  1  0
  2  3  1  0
  3  4  1  0
  4  5  1  0
  5  6  2  0
  6  7  1  0
  7  8  2  0
  8  9  1  0
  9 10  1  0
 10 11  1  0
 11 12  1  0
 12 13  2  0
 13 14  1  0
 14 15  2  0
 15 16  1  0
  8 17  1  0
 17  5  1  0
 16 12  1  0
  1 18  1  0
  1 19  1  0
  1 20  1  0
  3 21  1  0
  3 22  1  0
  4 23  1  0
  4 24  1  0
  7 25  1  0
  9 26  1  0
  9 27  1  0
 10 28  1  0
 11 29  1  0
 11 30  1  0
 14 31  1  0
 15 32  1  0
 16 33  1  0
M  END
>  <Energy>  (119) 
28.889519504927222

>  <compound_id>  (119) 
32350

>  <target_id>  (119) 
1

>  <reference_id>  (119) 
7

>  <inspiration_ids>  (119) 
[7, 114]

>  <energy_score>  (119) 
-26.033780373423753

>  <distance_score>  (119) 
12.23691374054641

>  <path>  (119) 
/opt/xchem-fragalysis-2/maxwin/BulkDock/SCRATCH/511020/C32350-P7/C32350-P7.minimised.mol

>  <scratch_subdir>  (119) 
/opt/xchem-fragalysis-2/maxwin/BulkDock/SCRATCH/511020/C32350-P7

>  <fragmenstein_runtime>  (119) 
5.7142274379730225

>  <fragmenstein_outcome>  (119) 
too moved

>  <fragmenstein_mode>  (119) 
expansion

>  <fragmenstein_error>  (119) 


$$$$
C32350-P114
     RDKit          3D

 33 34  0  0  0  0  0  0  0  0999 V2000
   -4.5284   -3.0362   32.4742 C   0  0  0  0  0  0  0  0  0  0  0  0
   -4.0403   -2.2907   31.3548 O   0  0  0  0  0  0  0  0  0  0  0  0
   -2.7472   -2.7522   30.8753 C   0  0  0  0  0  0  0  0  0  0  0  0
   -2.1681   -1.7882   29.7949 C   0  0  0  0  0  0  0  0  0  0  0  0
   -0.7759   -2.1203   29.1515 C   0  0  0  0  0  0  0  0  0  0  0  0
   -0.1035   -3.2500   29.2362 N   0  0  0  0  0  0  0  0  0  0  0  0
    1.0935   -3.2037   28.4608 C   0  0  0  0  0  0  0  0  0  0  0  0
    1.3984   -2.0633   27.7145 C   0  0  0  0  0  0  0  0  0  0  0  0
    2.7531   -1.6245   26.8043 C   0  0  0  0  0  0  0  0  0  0  0  0
    3.3570   -2.4071   25.4923 N   0  0  0  0  0  0  0  0  0  0  0  0
    4.4345   -1.6463   24.6279 C   0  0  0  0  0  0  0  0  0  0  0  0
    5.0459   -1.7674   22.8893 C   0  0  0  0  0  0  0  0  0  0  0  0
    5.3851   -2.7355   22.0026 N   0  0  0  0  0  0  0  0  0  0  0  0
    6.1093   -2.6434   20.8383 C   0  0  0  0  0  0  0  0  0  0  0  0
    6.6721   -1.4180   20.9174 C   0  0  0  0  0  0  0  0  0  0  0  0
    5.4228   -0.7766   21.9288 N   0  0  0  0  0  0  0  0  0  0  0  0
    0.0900   -0.9209   28.1667 S   0  0  0  0  0  0  0  0  0  0  0  0
   -3.8558   -2.9087   33.3273 H   0  0  0  0  0  0  0  0  0  0  0  0
   -5.5134   -2.6474   32.7414 H   0  0  0  0  0  0  0  0  0  0  0  0
   -4.6073   -4.0952   32.2150 H   0  0  0  0  0  0  0  0  0  0  0  0
   -2.8694   -3.7557   30.4529 H   0  0  0  0  0  0  0  0  0  0  0  0
   -2.0506   -2.8083   31.7197 H   0  0  0  0  0  0  0  0  0  0  0  0
   -2.1013   -0.7855   30.2369 H   0  0  0  0  0  0  0  0  0  0  0  0
   -2.8956   -1.7075   28.9773 H   0  0  0  0  0  0  0  0  0  0  0  0
    1.7407   -4.0671   28.4952 H   0  0  0  0  0  0  0  0  0  0  0  0
    2.6005   -0.5831   26.5107 H   0  0  0  0  0  0  0  0  0  0  0  0
    3.5787   -1.6494   27.5265 H   0  0  0  0  0  0  0  0  0  0  0  0
    2.5626   -2.4706   24.8533 H   0  0  0  0  0  0  0  0  0  0  0  0
    4.1337   -0.6061   24.7835 H   0  0  0  0  0  0  0  0  0  0  0  0
    5.3666   -1.7867   25.1852 H   0  0  0  0  0  0  0  0  0  0  0  0
    5.9678   -3.3702   20.0641 H   0  0  0  0  0  0  0  0  0  0  0  0
    7.1636   -0.6872   20.2670 H   0  0  0  0  0  0  0  0  0  0  0  0
    5.1970    0.2141   21.9307 H   0  0  0  0  0  0  0  0  0  0  0  0
  1  2  1  0
  2  3  1  0
  3  4  1  0
  4  5  1  0
  5  6  2  0
  6  7  1  0
  7  8  2  0
  8  9  1  0
  9 10  1  0
 10 11  1  0
 11 12  1  0
 12 13  2  0
 13 14  1  0
 14 15  2  0
 15 16  1  0
  8 17  1  0
 17  5  1  0
 16 12  1  0
  1 18  1  0
  1 19  1  0
  1 20  1  0
  3 21  1  0
  3 22  1  0
  4 23  1  0
  4 24  1  0
  7 25  1  0
  9 26  1  0
  9 27  1  0
 10 28  1  0
 11 29  1  0
 11 30  1  0
 14 31  1  0
 15 32  1  0
 16 33  1  0
M  END
>  <Energy>  (120) 
188.54350975455191

>  <compound_id>  (120) 
32350

>  <target_id>  (120) 
1

>  <reference_id>  (120) 
114

>  <inspiration_ids>  (120) 
[7, 114]

>  <energy_score>  (120) 
133.62020987620298

>  <distance_score>  (120) 
12.68244077116142

>  <path>  (120) 
/opt/xchem-fragalysis-2/maxwin/BulkDock/SCRATCH/511020/C32350-P114/C32350-P114.minimised.mol

>  <scratch_subdir>  (120) 
/opt/xchem-fragalysis-2/maxwin/BulkDock/SCRATCH/511020/C32350-P114

>  <fragmenstein_runtime>  (120) 
5.166024446487427

>  <fragmenstein_outcome>  (120) 
too moved

>  <fragmenstein_mode>  (120) 
expansion

>  <fragmenstein_error>  (120) 


$$$$
C32351-P7
     RDKit          3D

 39 40  0  0  0  0  0  0  0  0999 V2000
   -6.1875   -1.5354   32.2901 C   0  0  0  0  0  0  0  0  0  0  0  0
   -6.4069   -1.8548   30.9169 O   0  0  0  0  0  0  0  0  0  0  0  0
   -5.2281   -2.3420   30.2537 C   0  0  0  0  0  0  0  0  0  0  0  0
   -5.4281   -2.3861   28.7038 C   0  0  0  0  0  0  0  0  0  0  0  0
   -4.5836   -3.3950   27.9921 N   0  0  0  0  0  0  0  0  0  0  0  0
   -5.3630   -4.1931   27.0466 C   0  0  0  0  0  0  0  0  0  0  0  0
   -5.2525   -3.4899   25.6909 C   0  0  0  0  0  0  0  0  0  0  0  0
   -3.9201   -2.6812   25.6603 C   0  0  0  0  0  0  0  0  0  0  0  0
   -3.0230   -2.9769   24.0887 C   0  0  0  0  0  0  0  0  0  0  0  0
   -1.7433   -2.0707   22.9765 N   0  0  0  0  0  0  0  0  0  0  0  0
    0.0817   -2.4934   22.3216 C   0  0  0  0  0  0  0  0  0  0  0  0
    1.0336   -2.9538   20.5559 C   0  0  0  0  0  0  0  0  0  0  0  0
    1.0135   -1.2976   19.8256 N   0  0  0  0  0  0  0  0  0  0  0  0
    0.5567   -1.0947   18.1086 C   0  0  0  0  0  0  0  0  0  0  0  0
    0.6494   -2.3971   17.6695 C   0  0  0  0  0  0  0  0  0  0  0  0
    1.1270   -1.8470   18.9866 N   0  0  0  0  0  0  0  0  0  0  0  0
   -3.4365   -2.9283   27.1495 C   0  0  0  0  0  0  0  0  0  0  0  0
   -5.5637   -0.6388   32.3574 H   0  0  0  0  0  0  0  0  0  0  0  0
   -5.6901   -2.3596   32.8075 H   0  0  0  0  0  0  0  0  0  0  0  0
   -7.1465   -1.3231   32.7669 H   0  0  0  0  0  0  0  0  0  0  0  0
   -4.3730   -1.6948   30.4825 H   0  0  0  0  0  0  0  0  0  0  0  0
   -5.0060   -3.3453   30.6304 H   0  0  0  0  0  0  0  0  0  0  0  0
   -6.4929   -2.5883   28.5288 H   0  0  0  0  0  0  0  0  0  0  0  0
   -5.2600   -1.3847   28.2880 H   0  0  0  0  0  0  0  0  0  0  0  0
   -6.4022   -4.3717   27.3439 H   0  0  0  0  0  0  0  0  0  0  0  0
   -4.8961   -5.1837   26.9691 H   0  0  0  0  0  0  0  0  0  0  0  0
   -6.1146   -2.8247   25.5806 H   0  0  0  0  0  0  0  0  0  0  0  0
   -5.2949   -4.2238   24.8798 H   0  0  0  0  0  0  0  0  0  0  0  0
   -4.0896   -1.6069   25.7016 H   0  0  0  0  0  0  0  0  0  0  0  0
   -2.6680   -3.9975   24.3142 H   0  0  0  0  0  0  0  0  0  0  0  0
   -3.8086   -3.2150   23.3617 H   0  0  0  0  0  0  0  0  0  0  0  0
   -1.7089   -1.2590   23.6000 H   0  0  0  0  0  0  0  0  0  0  0  0
    0.5050   -3.3270   22.8582 H   0  0  0  0  0  0  0  0  0  0  0  0
   -0.6603   -2.7070   21.7245 H   0  0  0  0  0  0  0  0  0  0  0  0
    0.4196   -0.0771   17.7322 H   0  0  0  0  0  0  0  0  0  0  0  0
    0.6866   -3.4605   17.8390 H   0  0  0  0  0  0  0  0  0  0  0  0
    2.0475   -1.3194   19.0344 H   0  0  0  0  0  0  0  0  0  0  0  0
   -2.9613   -2.0409   27.5820 H   0  0  0  0  0  0  0  0  0  0  0  0
   -2.6992   -3.7346   27.1668 H   0  0  0  0  0  0  0  0  0  0  0  0
  1  2  1  0
  2  3  1  0
  3  4  1  0
  4  5  1  0
  5  6  1  0
  6  7  1  0
  7  8  1  0
  8  9  1  0
  9 10  1  0
 10 11  1  0
 11 12  1  0
 12 13  2  0
 13 14  1  0
 14 15  2  0
 15 16  1  0
  8 17  1  0
 17  5  1  0
 16 12  1  0
  1 18  1  0
  1 19  1  0
  1 20  1  0
  3 21  1  0
  3 22  1  0
  4 23  1  0
  4 24  1  0
  6 25  1  0
  6 26  1  0
  7 27  1  0
  7 28  1  0
  8 29  1  0
  9 30  1  0
  9 31  1  0
 10 32  1  0
 11 33  1  0
 11 34  1  0
 14 35  1  0
 15 36  1  0
 16 37  1  0
 17 38  1  0
 17 39  1  0
M  END
>  <Energy>  (121) 
842.93939178878657

>  <compound_id>  (121) 
32351

>  <target_id>  (121) 
1

>  <reference_id>  (121) 
7

>  <inspiration_ids>  (121) 
[7, 114]

>  <energy_score>  (121) 
762.6834206627645

>  <distance_score>  (121) 
12.577616097560826

>  <path>  (121) 
/opt/xchem-fragalysis-2/maxwin/BulkDock/SCRATCH/511020/C32351-P7/C32351-P7.minimised.mol

>  <scratch_subdir>  (121) 
/opt/xchem-fragalysis-2/maxwin/BulkDock/SCRATCH/511020/C32351-P7

>  <fragmenstein_runtime>  (121) 
6.235796689987183

>  <fragmenstein_outcome>  (121) 
too moved

>  <fragmenstein_mode>  (121) 
expansion

>  <fragmenstein_error>  (121) 


$$$$
C32351-P114
     RDKit          3D

 39 40  0  0  0  0  0  0  0  0999 V2000
  -10.9035   -1.3559   37.5016 C   0  0  0  0  0  0  0  0  0  0  0  0
   -9.6830   -1.6756   36.8428 O   0  0  0  0  0  0  0  0  0  0  0  0
   -9.1755   -0.5944   36.0329 C   0  0  0  0  0  0  0  0  0  0  0  0
   -7.8736   -1.0953   35.3685 C   0  0  0  0  0  0  0  0  0  0  0  0
   -7.2483   -0.3236   34.2801 N   0  0  0  0  0  0  0  0  0  0  0  0
   -6.3522    0.7501   34.7256 C   0  0  0  0  0  0  0  0  0  0  0  0
   -5.2027    0.8321   33.6902 C   0  0  0  0  0  0  0  0  0  0  0  0
   -5.5566   -0.1604   32.5861 C   0  0  0  0  0  0  0  0  0  0  0  0
   -4.3815   -0.8841   31.8380 C   0  0  0  0  0  0  0  0  0  0  0  0
   -3.3974   -0.1407   30.9599 N   0  0  0  0  0  0  0  0  0  0  0  0
   -2.5653   -1.0937   30.1339 C   0  0  0  0  0  0  0  0  0  0  0  0
   -1.4615   -0.5544   29.1665 C   0  0  0  0  0  0  0  0  0  0  0  0
   -1.5069    0.4429   28.2926 N   0  0  0  0  0  0  0  0  0  0  0  0
   -0.2823    0.4685   27.6518 C   0  0  0  0  0  0  0  0  0  0  0  0
    0.5007   -0.5820   28.0531 C   0  0  0  0  0  0  0  0  0  0  0  0
   -0.2477   -1.2211   29.0073 N   0  0  0  0  0  0  0  0  0  0  0  0
   -6.4230   -1.1559   33.3888 C   0  0  0  0  0  0  0  0  0  0  0  0
  -11.2652   -2.2512   38.0137 H   0  0  0  0  0  0  0  0  0  0  0  0
  -11.6559   -1.0273   36.7822 H   0  0  0  0  0  0  0  0  0  0  0  0
  -10.7306   -0.5700   38.2425 H   0  0  0  0  0  0  0  0  0  0  0  0
   -8.9731    0.2779   36.6633 H   0  0  0  0  0  0  0  0  0  0  0  0
   -9.9286   -0.3356   35.2857 H   0  0  0  0  0  0  0  0  0  0  0  0
   -7.1427   -1.2670   36.1650 H   0  0  0  0  0  0  0  0  0  0  0  0
   -8.1231   -2.0818   34.9777 H   0  0  0  0  0  0  0  0  0  0  0  0
   -5.9171    0.5539   35.7131 H   0  0  0  0  0  0  0  0  0  0  0  0
   -6.8971    1.6969   34.7867 H   0  0  0  0  0  0  0  0  0  0  0  0
   -4.2580    0.5497   34.1702 H   0  0  0  0  0  0  0  0  0  0  0  0
   -5.0866    1.8455   33.2932 H   0  0  0  0  0  0  0  0  0  0  0  0
   -6.1863    0.3413   31.8392 H   0  0  0  0  0  0  0  0  0  0  0  0
   -4.8541   -1.6509   31.2096 H   0  0  0  0  0  0  0  0  0  0  0  0
   -3.7850   -1.4182   32.5885 H   0  0  0  0  0  0  0  0  0  0  0  0
   -3.9031    0.4652   30.3132 H   0  0  0  0  0  0  0  0  0  0  0  0
   -2.0697   -1.7830   30.8292 H   0  0  0  0  0  0  0  0  0  0  0  0
   -3.2444   -1.6869   29.5082 H   0  0  0  0  0  0  0  0  0  0  0  0
   -0.0460    1.2433   26.9359 H   0  0  0  0  0  0  0  0  0  0  0  0
    1.4921   -0.9115   27.7739 H   0  0  0  0  0  0  0  0  0  0  0  0
    0.0400   -2.0301   29.5392 H   0  0  0  0  0  0  0  0  0  0  0  0
   -7.0420   -1.7485   32.7151 H   0  0  0  0  0  0  0  0  0  0  0  0
   -5.7829   -1.8365   33.9663 H   0  0  0  0  0  0  0  0  0  0  0  0
  1  2  1  0
  2  3  1  0
  3  4  1  0
  4  5  1  0
  5  6  1  0
  6  7  1  0
  7  8  1  0
  8  9  1  0
  9 10  1  0
 10 11  1  0
 11 12  1  0
 12 13  2  0
 13 14  1  0
 14 15  2  0
 15 16  1  0
  8 17  1  0
 17  5  1  0
 16 12  1  0
  1 18  1  0
  1 19  1  0
  1 20  1  0
  3 21  1  0
  3 22  1  0
  4 23  1  0
  4 24  1  0
  6 25  1  0
  6 26  1  0
  7 27  1  0
  7 28  1  0
  8 29  1  0
  9 30  1  0
  9 31  1  0
 10 32  1  0
 11 33  1  0
 11 34  1  0
 14 35  1  0
 15 36  1  0
 16 37  1  0
 17 38  1  0
 17 39  1  0
M  END
>  <Energy>  (122) 
57.414049936928222

>  <compound_id>  (122) 
32351

>  <target_id>  (122) 
1

>  <reference_id>  (122) 
114

>  <inspiration_ids>  (122) 
[7, 114]

>  <energy_score>  (122) 
-22.841921189083962

>  <distance_score>  (122) 
12.35930891055471

>  <path>  (122) 
/opt/xchem-fragalysis-2/maxwin/BulkDock/SCRATCH/511020/C32351-P114/C32351-P114.minimised.mol

>  <scratch_subdir>  (122) 
/opt/xchem-fragalysis-2/maxwin/BulkDock/SCRATCH/511020/C32351-P114

>  <fragmenstein_runtime>  (122) 
6.0339109897613525

>  <fragmenstein_outcome>  (122) 
too moved

>  <fragmenstein_mode>  (122) 
expansion

>  <fragmenstein_error>  (122) 


$$$$
C32352-P7
     RDKit          3D

 42 43  0  0  0  0  0  0  0  0999 V2000
   -3.9268   -1.3858   31.7311 C   0  0  0  0  0  0  0  0  0  0  0  0
   -2.8236   -1.9398   31.0029 O   0  0  0  0  0  0  0  0  0  0  0  0
   -1.8902   -0.9395   30.5001 C   0  0  0  0  0  0  0  0  0  0  0  0
   -0.6533   -1.6022   29.7414 C   0  0  0  0  0  0  0  0  0  0  0  0
    0.5479   -0.7747   29.2213 N   0  0  0  0  0  0  0  0  0  0  0  0
    0.2192    0.0848   28.0719 C   0  0  0  0  0  0  0  0  0  0  0  0
    1.4660    0.7616   27.3556 C   0  0  0  0  0  0  0  0  0  0  0  0
    2.5860   -0.2312   26.7654 C   0  0  0  0  0  0  0  0  0  0  0  0
    3.7119    0.5570   25.6117 C   0  0  0  0  0  0  0  0  0  0  0  0
    4.7271   -0.0565   24.4333 N   0  0  0  0  0  0  0  0  0  0  0  0
    4.8517    0.7747   22.7036 C   0  0  0  0  0  0  0  0  0  0  0  0
    6.5423    1.3583   21.7941 C   0  0  0  0  0  0  0  0  0  0  0  0
    6.9054    2.3278   21.0378 N   0  0  0  0  0  0  0  0  0  0  0  0
    7.7339    1.2422   20.8868 C   0  0  0  0  0  0  0  0  0  0  0  0
    8.9174    1.0668   22.2390 C   0  0  0  0  0  0  0  0  0  0  0  0
    8.2603    2.0345   21.8228 N   0  0  0  0  0  0  0  0  0  0  0  0
    2.9851   -0.9989   28.0507 C   0  0  0  0  0  0  0  0  0  0  0  0
    1.6933   -1.6572   28.7954 C   0  0  0  0  0  0  0  0  0  0  0  0
   -4.5689   -2.2073   32.0590 H   0  0  0  0  0  0  0  0  0  0  0  0
   -4.5024   -0.7172   31.0848 H   0  0  0  0  0  0  0  0  0  0  0  0
   -3.5611   -0.8445   32.6081 H   0  0  0  0  0  0  0  0  0  0  0  0
   -1.5124   -0.3568   31.3472 H   0  0  0  0  0  0  0  0  0  0  0  0
   -2.4217   -0.2757   29.8101 H   0  0  0  0  0  0  0  0  0  0  0  0
   -0.2379   -2.3324   30.4488 H   0  0  0  0  0  0  0  0  0  0  0  0
   -1.0496   -2.1975   28.9081 H   0  0  0  0  0  0  0  0  0  0  0  0
   -0.3324   -0.4882   27.3215 H   0  0  0  0  0  0  0  0  0  0  0  0
   -0.4431    0.8886   28.4134 H   0  0  0  0  0  0  0  0  0  0  0  0
    1.9554    1.4279   28.0795 H   0  0  0  0  0  0  0  0  0  0  0  0
    1.0912    1.4235   26.5677 H   0  0  0  0  0  0  0  0  0  0  0  0
    2.1510   -1.0251   26.1666 H   0  0  0  0  0  0  0  0  0  0  0  0
    4.3891    1.0824   26.2941 H   0  0  0  0  0  0  0  0  0  0  0  0
    3.0984    1.2952   25.0835 H   0  0  0  0  0  0  0  0  0  0  0  0
    4.1718   -0.8516   24.0967 H   0  0  0  0  0  0  0  0  0  0  0  0
    4.6528    0.0047   21.9559 H   0  0  0  0  0  0  0  0  0  0  0  0
    3.9922    1.4990   22.6768 H   0  0  0  0  0  0  0  0  0  0  0  0
    7.5998    0.4050   20.1221 H   0  0  0  0  0  0  0  0  0  0  0  0
    9.9058    0.6347   22.3897 H   0  0  0  0  0  0  0  0  0  0  0  0
    8.3134    3.0587   21.8766 H   0  0  0  0  0  0  0  0  0  0  0  0
    3.4919   -0.3279   28.7540 H   0  0  0  0  0  0  0  0  0  0  0  0
    3.6840   -1.8043   27.7978 H   0  0  0  0  0  0  0  0  0  0  0  0
    1.3079   -2.4338   28.1209 H   0  0  0  0  0  0  0  0  0  0  0  0
    2.0754   -2.1652   29.6889 H   0  0  0  0  0  0  0  0  0  0  0  0
  1  2  1  0
  2  3  1  0
  3  4  1  0
  4  5  1  0
  5  6  1  0
  6  7  1  0
  7  8  1  0
  8  9  1  0
  9 10  1  0
 10 11  1  0
 11 12  1  0
 12 13  2  0
 13 14  1  0
 14 15  2  0
 15 16  1  0
  8 17  1  0
 17 18  1  0
 18  5  1  0
 16 12  1  0
  1 19  1  0
  1 20  1  0
  1 21  1  0
  3 22  1  0
  3 23  1  0
  4 24  1  0
  4 25  1  0
  6 26  1  0
  6 27  1  0
  7 28  1  0
  7 29  1  0
  8 30  1  0
  9 31  1  0
  9 32  1  0
 10 33  1  0
 11 34  1  0
 11 35  1  0
 14 36  1  0
 15 37  1  0
 16 38  1  0
 17 39  1  0
 17 40  1  0
 18 41  1  0
 18 42  1  0
M  END
>  <Energy>  (123) 
607.46942745184276

>  <compound_id>  (123) 
32352

>  <target_id>  (123) 
1

>  <reference_id>  (123) 
7

>  <inspiration_ids>  (123) 
[7, 114]

>  <energy_score>  (123) 
542.5513581904233

>  <distance_score>  (123) 
13.031789374553734

>  <path>  (123) 
/opt/xchem-fragalysis-2/maxwin/BulkDock/SCRATCH/511020/C32352-P7/C32352-P7.minimised.mol

>  <scratch_subdir>  (123) 
/opt/xchem-fragalysis-2/maxwin/BulkDock/SCRATCH/511020/C32352-P7

>  <fragmenstein_runtime>  (123) 
7.593524217605591

>  <fragmenstein_outcome>  (123) 
too moved

>  <fragmenstein_mode>  (123) 
expansion

>  <fragmenstein_error>  (123) 


$$$$
C32352-P114
     RDKit          3D

 42 43  0  0  0  0  0  0  0  0999 V2000
   -5.0040   -2.4768   32.2582 C   0  0  0  0  0  0  0  0  0  0  0  0
   -3.8397   -1.6886   32.0045 O   0  0  0  0  0  0  0  0  0  0  0  0
   -3.0497   -2.1591   30.8802 C   0  0  0  0  0  0  0  0  0  0  0  0
   -1.8644   -1.1594   30.5607 C   0  0  0  0  0  0  0  0  0  0  0  0
   -0.9146   -1.4207   29.3888 N   0  0  0  0  0  0  0  0  0  0  0  0
    0.1587   -2.3849   29.7023 C   0  0  0  0  0  0  0  0  0  0  0  0
    1.2002   -2.6313   28.5314 C   0  0  0  0  0  0  0  0  0  0  0  0
    1.9154   -1.3756   27.8731 C   0  0  0  0  0  0  0  0  0  0  0  0
    3.0398   -1.8282   26.5640 C   0  0  0  0  0  0  0  0  0  0  0  0
    3.6045   -1.0618   25.3112 N   0  0  0  0  0  0  0  0  0  0  0  0
    4.2574   -2.0072   24.1181 C   0  0  0  0  0  0  0  0  0  0  0  0
    5.1783   -1.7138   22.5626 C   0  0  0  0  0  0  0  0  0  0  0  0
    5.5637   -0.7089   21.7765 N   0  0  0  0  0  0  0  0  0  0  0  0
    6.8553   -1.2530   20.7306 C   0  0  0  0  0  0  0  0  0  0  0  0
    6.8067   -2.5921   20.7904 C   0  0  0  0  0  0  0  0  0  0  0  0
    5.5945   -2.7473   21.3973 N   0  0  0  0  0  0  0  0  0  0  0  0
    0.7726   -0.3427   27.7081 C   0  0  0  0  0  0  0  0  0  0  0  0
   -0.2096   -0.1782   28.9526 C   0  0  0  0  0  0  0  0  0  0  0  0
   -5.5175   -2.0634   33.1299 H   0  0  0  0  0  0  0  0  0  0  0  0
   -4.7162   -3.5104   32.4693 H   0  0  0  0  0  0  0  0  0  0  0  0
   -5.6742   -2.4326   31.3955 H   0  0  0  0  0  0  0  0  0  0  0  0
   -3.6945   -2.2420   29.9982 H   0  0  0  0  0  0  0  0  0  0  0  0
   -2.6416   -3.1451   31.1257 H   0  0  0  0  0  0  0  0  0  0  0  0
   -1.2761   -1.0058   31.4748 H   0  0  0  0  0  0  0  0  0  0  0  0
   -2.3527   -0.1937   30.3710 H   0  0  0  0  0  0  0  0  0  0  0  0
   -0.2924   -3.3529   29.9505 H   0  0  0  0  0  0  0  0  0  0  0  0
    0.7210   -2.0546   30.5856 H   0  0  0  0  0  0  0  0  0  0  0  0
    0.6730   -3.1738   27.7413 H   0  0  0  0  0  0  0  0  0  0  0  0
    1.9782   -3.3085   28.9048 H   0  0  0  0  0  0  0  0  0  0  0  0
    2.5904   -0.9581   28.6339 H   0  0  0  0  0  0  0  0  0  0  0  0
    2.6978   -2.8033   26.2272 H   0  0  0  0  0  0  0  0  0  0  0  0
    3.9496   -2.0724   27.1314 H   0  0  0  0  0  0  0  0  0  0  0  0
    4.3643   -0.4496   25.5958 H   0  0  0  0  0  0  0  0  0  0  0  0
    5.0407   -2.4857   24.6823 H   0  0  0  0  0  0  0  0  0  0  0  0
    3.4539   -2.6814   23.8306 H   0  0  0  0  0  0  0  0  0  0  0  0
    7.4150   -0.4846   20.2010 H   0  0  0  0  0  0  0  0  0  0  0  0
    7.5578   -3.3765   20.6986 H   0  0  0  0  0  0  0  0  0  0  0  0
    4.9398   -3.3570   20.9535 H   0  0  0  0  0  0  0  0  0  0  0  0
    0.1272   -0.6304   26.8898 H   0  0  0  0  0  0  0  0  0  0  0  0
    1.2006    0.6361   27.4653 H   0  0  0  0  0  0  0  0  0  0  0  0
    0.3612    0.2472   29.7886 H   0  0  0  0  0  0  0  0  0  0  0  0
   -0.9628    0.5646   28.6623 H   0  0  0  0  0  0  0  0  0  0  0  0
  1  2  1  0
  2  3  1  0
  3  4  1  0
  4  5  1  0
  5  6  1  0
  6  7  1  0
  7  8  1  0
  8  9  1  0
  9 10  1  0
 10 11  1  0
 11 12  1  0
 12 13  2  0
 13 14  1  0
 14 15  2  0
 15 16  1  0
  8 17  1  0
 17 18  1  0
 18  5  1  0
 16 12  1  0
  1 19  1  0
  1 20  1  0
  1 21  1  0
  3 22  1  0
  3 23  1  0
  4 24  1  0
  4 25  1  0
  6 26  1  0
  6 27  1  0
  7 28  1  0
  7 29  1  0
  8 30  1  0
  9 31  1  0
  9 32  1  0
 10 33  1  0
 11 34  1  0
 11 35  1  0
 14 36  1  0
 15 37  1  0
 16 38  1  0
 17 39  1  0
 17 40  1  0
 18 41  1  0
 18 42  1  0
M  END
>  <Energy>  (124) 
234.48153032710272

>  <compound_id>  (124) 
32352

>  <target_id>  (124) 
1

>  <reference_id>  (124) 
114

>  <inspiration_ids>  (124) 
[7, 114]

>  <energy_score>  (124) 
169.5634610656826

>  <distance_score>  (124) 
12.365699408740891

>  <path>  (124) 
/opt/xchem-fragalysis-2/maxwin/BulkDock/SCRATCH/511020/C32352-P114/C32352-P114.minimised.mol

>  <scratch_subdir>  (124) 
/opt/xchem-fragalysis-2/maxwin/BulkDock/SCRATCH/511020/C32352-P114

>  <fragmenstein_runtime>  (124) 
8.71396517753601

>  <fragmenstein_outcome>  (124) 
too moved

>  <fragmenstein_mode>  (124) 
expansion

>  <fragmenstein_error>  (124) 


$$$$
C32354-P7
     RDKit          3D

 37 38  0  0  0  0  0  0  0  0999 V2000
   -4.5081   -2.8789   32.2294 C   0  0  0  0  0  0  0  0  0  0  0  0
   -3.2338   -2.3805   31.8100 O   0  0  0  0  0  0  0  0  0  0  0  0
   -2.7934   -2.9128   30.5384 C   0  0  0  0  0  0  0  0  0  0  0  0
   -1.4154   -2.3078   29.9937 C   0  0  0  0  0  0  0  0  0  0  0  0
   -1.4610   -0.9856   29.3514 N   0  0  0  0  0  0  0  0  0  0  0  0
   -2.5283   -0.1485   29.6885 C   0  0  0  0  0  0  0  0  0  0  0  0
   -2.3409    1.0186   29.0253 C   0  0  0  0  0  0  0  0  0  0  0  0
   -1.1890    0.9486   28.3095 N   0  0  0  0  0  0  0  0  0  0  0  0
   -0.5885   -0.2334   28.4992 C   0  0  0  0  0  0  0  0  0  0  0  0
    0.6802   -0.2545   27.8462 N   0  0  0  0  0  0  0  0  0  0  0  0
    1.6099   -1.3880   27.5359 C   0  0  0  0  0  0  0  0  0  0  0  0
    1.5492   -2.5535   27.8340 O   0  0  0  0  0  0  0  0  0  0  0  0
    2.9813   -0.7268   26.7092 C   0  0  0  0  0  0  0  0  0  0  0  0
    3.7815   -1.5792   25.1011 S   0  0  0  0  0  0  0  0  0  0  0  0
    4.6564    0.0516   24.0209 C   0  0  0  0  0  0  0  0  0  0  0  0
    5.0184    0.4474   22.0683 C   0  0  0  0  0  0  0  0  0  0  0  0
    6.1248    1.3793   21.8981 N   0  0  0  0  0  0  0  0  0  0  0  0
    7.3453    1.3878   20.9656 C   0  0  0  0  0  0  0  0  0  0  0  0
    7.2495    0.1151   20.3120 C   0  0  0  0  0  0  0  0  0  0  0  0
    6.1006   -0.4270   21.1407 N   0  0  0  0  0  0  0  0  0  0  0  0
   -4.7382   -2.4525   33.2089 H   0  0  0  0  0  0  0  0  0  0  0  0
   -5.2753   -2.5663   31.5164 H   0  0  0  0  0  0  0  0  0  0  0  0
   -4.4731   -3.9685   32.3127 H   0  0  0  0  0  0  0  0  0  0  0  0
   -3.5822   -2.7740   29.7900 H   0  0  0  0  0  0  0  0  0  0  0  0
   -2.6358   -3.9876   30.6829 H   0  0  0  0  0  0  0  0  0  0  0  0
   -1.0141   -2.9822   29.2299 H   0  0  0  0  0  0  0  0  0  0  0  0
   -0.7005   -2.2134   30.8177 H   0  0  0  0  0  0  0  0  0  0  0  0
   -3.3087   -0.4361   30.3754 H   0  0  0  0  0  0  0  0  0  0  0  0
   -2.9558    1.9082   29.0332 H   0  0  0  0  0  0  0  0  0  0  0  0
    0.9967    0.5755   27.3678 H   0  0  0  0  0  0  0  0  0  0  0  0
    3.7846   -0.7231   27.4540 H   0  0  0  0  0  0  0  0  0  0  0  0
    2.7761    0.3105   26.4364 H   0  0  0  0  0  0  0  0  0  0  0  0
    3.9537    0.8462   24.3744 H   0  0  0  0  0  0  0  0  0  0  0  0
    5.4619   -0.0016   24.6880 H   0  0  0  0  0  0  0  0  0  0  0  0
    7.5932    2.3733   20.6422 H   0  0  0  0  0  0  0  0  0  0  0  0
    7.5677   -0.4057   19.4315 H   0  0  0  0  0  0  0  0  0  0  0  0
    5.9191   -1.4146   21.0704 H   0  0  0  0  0  0  0  0  0  0  0  0
  1  2  1  0
  2  3  1  0
  3  4  1  0
  4  5  1  0
  5  6  1  0
  6  7  2  0
  7  8  1  0
  8  9  2  0
  9 10  1  0
 10 11  1  0
 11 12  2  0
 11 13  1  0
 13 14  1  0
 14 15  1  0
 15 16  1  0
 16 17  2  0
 17 18  1  0
 18 19  2  0
 19 20  1  0
  9  5  1  0
 20 16  1  0
  1 21  1  0
  1 22  1  0
  1 23  1  0
  3 24  1  0
  3 25  1  0
  4 26  1  0
  4 27  1  0
  6 28  1  0
  7 29  1  0
 10 30  1  0
 13 31  1  0
 13 32  1  0
 15 33  1  0
 15 34  1  0
 18 35  1  0
 19 36  1  0
 20 37  1  0
M  END
>  <Energy>  (125) 
316.46409919931295

>  <compound_id>  (125) 
32354

>  <target_id>  (125) 
1

>  <reference_id>  (125) 
7

>  <inspiration_ids>  (125) 
[7, 114]

>  <energy_score>  (125) 
232.33033897997962

>  <distance_score>  (125) 
11.711699014193965

>  <path>  (125) 
/opt/xchem-fragalysis-2/maxwin/BulkDock/SCRATCH/511020/C32354-P7/C32354-P7.minimised.mol

>  <scratch_subdir>  (125) 
/opt/xchem-fragalysis-2/maxwin/BulkDock/SCRATCH/511020/C32354-P7

>  <fragmenstein_runtime>  (125) 
11.039055347442627

>  <fragmenstein_outcome>  (125) 
too moved

>  <fragmenstein_mode>  (125) 
expansion

>  <fragmenstein_error>  (125) 


$$$$
C32354-P114
     RDKit          3D

 37 38  0  0  0  0  0  0  0  0999 V2000
   -5.2681   -2.4289   32.9971 C   0  0  0  0  0  0  0  0  0  0  0  0
   -4.6024   -2.6066   31.7391 O   0  0  0  0  0  0  0  0  0  0  0  0
   -3.1658   -2.6374   31.8750 C   0  0  0  0  0  0  0  0  0  0  0  0
   -2.3736   -2.6188   30.5002 C   0  0  0  0  0  0  0  0  0  0  0  0
   -2.1154   -1.3035   29.8932 N   0  0  0  0  0  0  0  0  0  0  0  0
   -3.0683   -0.3067   30.0566 C   0  0  0  0  0  0  0  0  0  0  0  0
   -2.5098    0.8304   29.5612 C   0  0  0  0  0  0  0  0  0  0  0  0
   -1.2878    0.5533   29.0205 N   0  0  0  0  0  0  0  0  0  0  0  0
   -1.0320   -0.7444   29.1314 C   0  0  0  0  0  0  0  0  0  0  0  0
    0.1478   -1.2823   28.5291 N   0  0  0  0  0  0  0  0  0  0  0  0
    1.2355   -0.6071   27.6999 C   0  0  0  0  0  0  0  0  0  0  0  0
    1.3996    0.5567   27.4225 O   0  0  0  0  0  0  0  0  0  0  0  0
    2.4230   -1.6325   27.1460 C   0  0  0  0  0  0  0  0  0  0  0  0
    3.7543   -0.7513   25.8272 S   0  0  0  0  0  0  0  0  0  0  0  0
    4.0762   -1.9544   24.2996 C   0  0  0  0  0  0  0  0  0  0  0  0
    5.0288   -1.6773   22.8742 C   0  0  0  0  0  0  0  0  0  0  0  0
    5.4244   -0.7116   22.0142 N   0  0  0  0  0  0  0  0  0  0  0  0
    6.5508   -1.3597   21.0085 C   0  0  0  0  0  0  0  0  0  0  0  0
    6.0244   -2.5889   20.8979 C   0  0  0  0  0  0  0  0  0  0  0  0
    5.3700   -2.6674   21.9899 N   0  0  0  0  0  0  0  0  0  0  0  0
   -5.1613   -3.3322   33.6034 H   0  0  0  0  0  0  0  0  0  0  0  0
   -4.8579   -1.5652   33.5293 H   0  0  0  0  0  0  0  0  0  0  0  0
   -6.3226   -2.2332   32.7968 H   0  0  0  0  0  0  0  0  0  0  0  0
   -2.8300   -1.8015   32.5001 H   0  0  0  0  0  0  0  0  0  0  0  0
   -2.9171   -3.5739   32.3877 H   0  0  0  0  0  0  0  0  0  0  0  0
   -2.9179   -3.1924   29.7465 H   0  0  0  0  0  0  0  0  0  0  0  0
   -1.3832   -3.0595   30.6569 H   0  0  0  0  0  0  0  0  0  0  0  0
   -4.0253   -0.4795   30.5281 H   0  0  0  0  0  0  0  0  0  0  0  0
   -2.9188    1.8318   29.5432 H   0  0  0  0  0  0  0  0  0  0  0  0
    0.2709   -2.2821   28.4884 H   0  0  0  0  0  0  0  0  0  0  0  0
    3.0517   -1.8678   28.0107 H   0  0  0  0  0  0  0  0  0  0  0  0
    2.0333   -2.5540   26.7387 H   0  0  0  0  0  0  0  0  0  0  0  0
    3.1374   -2.3288   23.9161 H   0  0  0  0  0  0  0  0  0  0  0  0
    4.5487   -2.7835   24.7959 H   0  0  0  0  0  0  0  0  0  0  0  0
    7.1261   -0.7126   20.3266 H   0  0  0  0  0  0  0  0  0  0  0  0
    5.6947   -3.2503   20.1004 H   0  0  0  0  0  0  0  0  0  0  0  0
    4.7390   -3.3503   21.6812 H   0  0  0  0  0  0  0  0  0  0  0  0
  1  2  1  0
  2  3  1  0
  3  4  1  0
  4  5  1  0
  5  6  1  0
  6  7  2  0
  7  8  1  0
  8  9  2  0
  9 10  1  0
 10 11  1  0
 11 12  2  0
 11 13  1  0
 13 14  1  0
 14 15  1  0
 15 16  1  0
 16 17  2  0
 17 18  1  0
 18 19  2  0
 19 20  1  0
  9  5  1  0
 20 16  1  0
  1 21  1  0
  1 22  1  0
  1 23  1  0
  3 24  1  0
  3 25  1  0
  4 26  1  0
  4 27  1  0
  6 28  1  0
  7 29  1  0
 10 30  1  0
 13 31  1  0
 13 32  1  0
 15 33  1  0
 15 34  1  0
 18 35  1  0
 19 36  1  0
 20 37  1  0
M  END
>  <Energy>  (126) 
205.74395076829649

>  <compound_id>  (126) 
32354

>  <target_id>  (126) 
1

>  <reference_id>  (126) 
114

>  <inspiration_ids>  (126) 
[7, 114]

>  <energy_score>  (126) 
121.61019054896349

>  <distance_score>  (126) 
11.250957039768583

>  <path>  (126) 
/opt/xchem-fragalysis-2/maxwin/BulkDock/SCRATCH/511020/C32354-P114/C32354-P114.minimised.mol

>  <scratch_subdir>  (126) 
/opt/xchem-fragalysis-2/maxwin/BulkDock/SCRATCH/511020/C32354-P114

>  <fragmenstein_runtime>  (126) 
16.109113693237305

>  <fragmenstein_outcome>  (126) 
too moved

>  <fragmenstein_mode>  (126) 
expansion

>  <fragmenstein_error>  (126) 


$$$$
C32356-P7
     RDKit          3D

 36 37  0  0  0  0  0  0  0  0999 V2000
  -10.8512   -2.3429   36.9870 C   0  0  0  0  0  0  0  0  0  0  0  0
   -9.4356   -2.1229   36.9647 O   0  0  0  0  0  0  0  0  0  0  0  0
   -9.0348   -1.3354   35.8323 C   0  0  0  0  0  0  0  0  0  0  0  0
   -7.5267   -0.9849   35.8957 C   0  0  0  0  0  0  0  0  0  0  0  0
   -6.8746   -0.7396   34.5864 N   0  0  0  0  0  0  0  0  0  0  0  0
   -5.7002   -1.3871   34.1996 C   0  0  0  0  0  0  0  0  0  0  0  0
   -5.0044   -1.1177   33.0637 C   0  0  0  0  0  0  0  0  0  0  0  0
   -3.6671   -1.7983   32.7738 C   0  0  0  0  0  0  0  0  0  0  0  0
   -2.8566   -1.5693   31.5670 N   0  0  0  0  0  0  0  0  0  0  0  0
   -1.8871   -0.5450   31.2576 C   0  0  0  0  0  0  0  0  0  0  0  0
   -1.5547    0.4268   31.8744 O   0  0  0  0  0  0  0  0  0  0  0  0
   -1.1115   -0.8241   29.9914 C   0  0  0  0  0  0  0  0  0  0  0  0
   -1.0861   -1.9500   29.2810 N   0  0  0  0  0  0  0  0  0  0  0  0
   -0.0291   -1.8243   28.3909 C   0  0  0  0  0  0  0  0  0  0  0  0
    0.5464   -0.5827   28.4787 C   0  0  0  0  0  0  0  0  0  0  0  0
   -0.1480    0.0432   29.4803 N   0  0  0  0  0  0  0  0  0  0  0  0
   -5.5961   -0.0948   32.1759 C   0  0  0  0  0  0  0  0  0  0  0  0
   -5.1088    0.1917   31.0879 O   0  0  0  0  0  0  0  0  0  0  0  0
   -6.7225    0.5295   32.6456 N   0  0  0  0  0  0  0  0  0  0  0  0
   -7.3189    0.3519   33.8626 C   0  0  0  0  0  0  0  0  0  0  0  0
   -8.1680    1.1356   34.2856 O   0  0  0  0  0  0  0  0  0  0  0  0
  -11.1695   -2.8626   36.0785 H   0  0  0  0  0  0  0  0  0  0  0  0
  -11.3795   -1.3900   37.0837 H   0  0  0  0  0  0  0  0  0  0  0  0
  -11.0863   -2.9675   37.8528 H   0  0  0  0  0  0  0  0  0  0  0  0
   -9.2417   -1.9101   34.9276 H   0  0  0  0  0  0  0  0  0  0  0  0
   -9.6224   -0.4116   35.8207 H   0  0  0  0  0  0  0  0  0  0  0  0
   -6.9810   -1.7458   36.4458 H   0  0  0  0  0  0  0  0  0  0  0  0
   -7.4145   -0.0691   36.4916 H   0  0  0  0  0  0  0  0  0  0  0  0
   -5.3125   -2.1208   34.8986 H   0  0  0  0  0  0  0  0  0  0  0  0
   -3.8299   -2.8828   32.7979 H   0  0  0  0  0  0  0  0  0  0  0  0
   -2.9979   -1.5519   33.6081 H   0  0  0  0  0  0  0  0  0  0  0  0
   -2.9367   -2.1994   30.7734 H   0  0  0  0  0  0  0  0  0  0  0  0
    0.2662   -2.6429   27.7509 H   0  0  0  0  0  0  0  0  0  0  0  0
    1.3792   -0.1208   27.9677 H   0  0  0  0  0  0  0  0  0  0  0  0
    0.0457    0.9491   29.8861 H   0  0  0  0  0  0  0  0  0  0  0  0
   -7.0342    1.3519   32.1331 H   0  0  0  0  0  0  0  0  0  0  0  0
  1  2  1  0
  2  3  1  0
  3  4  1  0
  4  5  1  0
  5  6  1  0
  6  7  2  0
  7  8  1  0
  8  9  1  0
  9 10  1  0
 10 11  2  0
 10 12  1  0
 12 13  2  0
 13 14  1  0
 14 15  2  0
 15 16  1  0
  7 17  1  0
 17 18  2  0
 17 19  1  0
 19 20  1  0
 20 21  2  0
 20  5  1  0
 16 12  1  0
  1 22  1  0
  1 23  1  0
  1 24  1  0
  3 25  1  0
  3 26  1  0
  4 27  1  0
  4 28  1  0
  6 29  1  0
  8 30  1  0
  8 31  1  0
  9 32  1  0
 14 33  1  0
 15 34  1  0
 16 35  1  0
 19 36  1  0
M  END
>  <Energy>  (127) 
-60.945609755022062

>  <compound_id>  (127) 
32356

>  <target_id>  (127) 
1

>  <reference_id>  (127) 
7

>  <inspiration_ids>  (127) 
[7, 114]

>  <energy_score>  (127) 
-18.682414305299147

>  <distance_score>  (127) 
12.499428989137222

>  <path>  (127) 
/opt/xchem-fragalysis-2/maxwin/BulkDock/SCRATCH/511020/C32356-P7/C32356-P7.minimised.mol

>  <scratch_subdir>  (127) 
/opt/xchem-fragalysis-2/maxwin/BulkDock/SCRATCH/511020/C32356-P7

>  <fragmenstein_runtime>  (127) 
9.29103708267212

>  <fragmenstein_outcome>  (127) 
too moved

>  <fragmenstein_mode>  (127) 
expansion

>  <fragmenstein_error>  (127) 


$$$$
C32356-P114
     RDKit          3D

 36 37  0  0  0  0  0  0  0  0999 V2000
   -9.5677   -1.2209   36.0125 C   0  0  0  0  0  0  0  0  0  0  0  0
   -8.1968   -1.6217   35.8704 O   0  0  0  0  0  0  0  0  0  0  0  0
   -7.6246   -1.1115   34.6432 C   0  0  0  0  0  0  0  0  0  0  0  0
   -6.1190   -1.4632   34.4433 C   0  0  0  0  0  0  0  0  0  0  0  0
   -5.4402   -1.1508   33.1474 N   0  0  0  0  0  0  0  0  0  0  0  0
   -4.1785   -1.7017   32.8862 C   0  0  0  0  0  0  0  0  0  0  0  0
   -3.5265   -1.5804   31.7015 C   0  0  0  0  0  0  0  0  0  0  0  0
   -2.2374   -2.3193   31.3639 C   0  0  0  0  0  0  0  0  0  0  0  0
   -1.2810   -1.8066   30.3667 N   0  0  0  0  0  0  0  0  0  0  0  0
   -0.5422   -2.4894   29.3203 C   0  0  0  0  0  0  0  0  0  0  0  0
   -0.5845   -3.6298   28.9518 O   0  0  0  0  0  0  0  0  0  0  0  0
    0.5154   -1.6565   28.6604 C   0  0  0  0  0  0  0  0  0  0  0  0
    0.7571   -0.3623   28.8055 N   0  0  0  0  0  0  0  0  0  0  0  0
    1.8646   -0.0816   28.0168 C   0  0  0  0  0  0  0  0  0  0  0  0
    2.3237   -1.2090   27.3879 C   0  0  0  0  0  0  0  0  0  0  0  0
    1.4589   -2.1907   27.7865 N   0  0  0  0  0  0  0  0  0  0  0  0
   -4.2488   -0.8324   30.6527 C   0  0  0  0  0  0  0  0  0  0  0  0
   -3.9307   -0.8727   29.4690 O   0  0  0  0  0  0  0  0  0  0  0  0
   -5.3215   -0.1040   31.0700 N   0  0  0  0  0  0  0  0  0  0  0  0
   -6.0411   -0.3529   32.1983 C   0  0  0  0  0  0  0  0  0  0  0  0
   -7.1742    0.0961   32.2794 O   0  0  0  0  0  0  0  0  0  0  0  0
   -9.9241   -1.5393   36.9955 H   0  0  0  0  0  0  0  0  0  0  0  0
  -10.1808   -1.6969   35.2438 H   0  0  0  0  0  0  0  0  0  0  0  0
   -9.6557   -0.1322   35.9493 H   0  0  0  0  0  0  0  0  0  0  0  0
   -8.1807   -1.5531   33.8194 H   0  0  0  0  0  0  0  0  0  0  0  0
   -7.7367   -0.0222   34.6444 H   0  0  0  0  0  0  0  0  0  0  0  0
   -5.9952   -2.5405   34.5551 H   0  0  0  0  0  0  0  0  0  0  0  0
   -5.5334   -0.9908   35.2412 H   0  0  0  0  0  0  0  0  0  0  0  0
   -3.7554   -2.3028   33.6892 H   0  0  0  0  0  0  0  0  0  0  0  0
   -2.5075   -3.3283   31.0292 H   0  0  0  0  0  0  0  0  0  0  0  0
   -1.6475   -2.4411   32.2804 H   0  0  0  0  0  0  0  0  0  0  0  0
   -0.9267   -0.8572   30.4567 H   0  0  0  0  0  0  0  0  0  0  0  0
    2.2615    0.9234   27.9530 H   0  0  0  0  0  0  0  0  0  0  0  0
    3.1268   -1.3949   26.6881 H   0  0  0  0  0  0  0  0  0  0  0  0
    1.4698   -3.1578   27.4956 H   0  0  0  0  0  0  0  0  0  0  0  0
   -5.8352    0.3732   30.3479 H   0  0  0  0  0  0  0  0  0  0  0  0
  1  2  1  0
  2  3  1  0
  3  4  1  0
  4  5  1  0
  5  6  1  0
  6  7  2  0
  7  8  1  0
  8  9  1  0
  9 10  1  0
 10 11  2  0
 10 12  1  0
 12 13  2  0
 13 14  1  0
 14 15  2  0
 15 16  1  0
  7 17  1  0
 17 18  2  0
 17 19  1  0
 19 20  1  0
 20 21  2  0
 20  5  1  0
 16 12  1  0
  1 22  1  0
  1 23  1  0
  1 24  1  0
  3 25  1  0
  3 26  1  0
  4 27  1  0
  4 28  1  0
  6 29  1  0
  8 30  1  0
  8 31  1  0
  9 32  1  0
 14 33  1  0
 15 34  1  0
 16 35  1  0
 19 36  1  0
M  END
>  <Energy>  (128) 
-61.020809080630286

>  <compound_id>  (128) 
32356

>  <target_id>  (128) 
1

>  <reference_id>  (128) 
114

>  <inspiration_ids>  (128) 
[7, 114]

>  <energy_score>  (128) 
-18.757613630906548

>  <distance_score>  (128) 
12.227746230242667

>  <path>  (128) 
/opt/xchem-fragalysis-2/maxwin/BulkDock/SCRATCH/511020/C32356-P114/C32356-P114.minimised.mol

>  <scratch_subdir>  (128) 
/opt/xchem-fragalysis-2/maxwin/BulkDock/SCRATCH/511020/C32356-P114

>  <fragmenstein_runtime>  (128) 
10.285926818847656

>  <fragmenstein_outcome>  (128) 
too moved

>  <fragmenstein_mode>  (128) 
expansion

>  <fragmenstein_error>  (128) 


$$$$
C48762-P7
     RDKit          3D

 42 43  0  0  0  0  0  0  0  0999 V2000
   -9.0649   -1.2514   35.9921 C   0  0  0  0  0  0  0  0  0  0  0  0
   -7.6427   -1.2030   35.9060 O   0  0  0  0  0  0  0  0  0  0  0  0
   -7.1582   -0.8133   34.6007 C   0  0  0  0  0  0  0  0  0  0  0  0
   -5.6385   -0.4332   34.6560 C   0  0  0  0  0  0  0  0  0  0  0  0
   -4.7205   -1.0313   33.6392 N   0  0  0  0  0  0  0  0  0  0  0  0
   -3.8440   -0.2635   32.8622 C   0  0  0  0  0  0  0  0  0  0  0  0
   -2.9679   -0.7936   31.9649 C   0  0  0  0  0  0  0  0  0  0  0  0
   -2.1077    0.0104   30.9860 C   0  0  0  0  0  0  0  0  0  0  0  0
   -0.7713   -0.4811   30.5922 N   0  0  0  0  0  0  0  0  0  0  0  0
   -0.2307   -0.8499   29.2730 C   0  0  0  0  0  0  0  0  0  0  0  0
   -0.7663   -0.9187   28.2013 O   0  0  0  0  0  0  0  0  0  0  0  0
    1.3277   -1.0764   29.3627 C   0  0  0  0  0  0  0  0  0  0  0  0
    2.0489   -1.7763   28.1541 C   0  0  0  0  0  0  0  0  0  0  0  0
    2.9000   -0.9610   27.2213 C   0  0  0  0  0  0  0  0  0  0  0  0
    3.6586   -1.4158   26.1551 C   0  0  0  0  0  0  0  0  0  0  0  0
    4.0982   -0.2950   25.5101 N   0  0  0  0  0  0  0  0  0  0  0  0
    3.6206    0.7750   26.2091 C   0  0  0  0  0  0  0  0  0  0  0  0
    2.9566    0.4089   27.2803 N   0  0  0  0  0  0  0  0  0  0  0  0
   -3.0166   -2.2682   31.8157 C   0  0  0  0  0  0  0  0  0  0  0  0
   -2.5122   -2.8637   30.8688 O   0  0  0  0  0  0  0  0  0  0  0  0
   -3.6810   -2.9420   32.7938 N   0  0  0  0  0  0  0  0  0  0  0  0
   -4.5841   -2.3999   33.6449 C   0  0  0  0  0  0  0  0  0  0  0  0
   -5.2468   -3.1324   34.3611 O   0  0  0  0  0  0  0  0  0  0  0  0
   -9.3398   -1.6025   36.9897 H   0  0  0  0  0  0  0  0  0  0  0  0
   -9.4785   -0.2476   35.8620 H   0  0  0  0  0  0  0  0  0  0  0  0
   -9.4724   -1.9369   35.2479 H   0  0  0  0  0  0  0  0  0  0  0  0
   -7.7151    0.0702   34.2666 H   0  0  0  0  0  0  0  0  0  0  0  0
   -7.3490   -1.6157   33.8880 H   0  0  0  0  0  0  0  0  0  0  0  0
   -5.2338   -0.7148   35.6367 H   0  0  0  0  0  0  0  0  0  0  0  0
   -5.5579    0.6582   34.5825 H   0  0  0  0  0  0  0  0  0  0  0  0
   -3.9255    0.8115   32.9816 H   0  0  0  0  0  0  0  0  0  0  0  0
   -2.6663    0.1592   30.0575 H   0  0  0  0  0  0  0  0  0  0  0  0
   -1.9200    0.9976   31.4197 H   0  0  0  0  0  0  0  0  0  0  0  0
   -0.0144   -0.4499   31.2637 H   0  0  0  0  0  0  0  0  0  0  0  0
    1.7904   -0.1078   29.5820 H   0  0  0  0  0  0  0  0  0  0  0  0
    1.4816   -1.7209   30.2387 H   0  0  0  0  0  0  0  0  0  0  0  0
    1.3062   -2.3236   27.5649 H   0  0  0  0  0  0  0  0  0  0  0  0
    2.7145   -2.5377   28.5840 H   0  0  0  0  0  0  0  0  0  0  0  0
    3.8206   -2.4029   25.7504 H   0  0  0  0  0  0  0  0  0  0  0  0
    4.4741   -0.2509   24.5689 H   0  0  0  0  0  0  0  0  0  0  0  0
    3.7299    1.7950   25.8756 H   0  0  0  0  0  0  0  0  0  0  0  0
   -3.6852   -3.9501   32.7439 H   0  0  0  0  0  0  0  0  0  0  0  0
  1  2  1  0
  2  3  1  0
  3  4  1  0
  4  5  1  0
  5  6  1  0
  6  7  2  0
  7  8  1  0
  8  9  1  0
  9 10  1  0
 10 11  2  0
 10 12  1  0
 12 13  1  0
 13 14  1  0
 14 15  2  0
 15 16  1  0
 16 17  1  0
 17 18  2  0
  7 19  1  0
 19 20  2  0
 19 21  1  0
 21 22  1  0
 22 23  2  0
 22  5  1  0
 18 14  1  0
  1 24  1  0
  1 25  1  0
  1 26  1  0
  3 27  1  0
  3 28  1  0
  4 29  1  0
  4 30  1  0
  6 31  1  0
  8 32  1  0
  8 33  1  0
  9 34  1  0
 12 35  1  0
 12 36  1  0
 13 37  1  0
 13 38  1  0
 15 39  1  0
 16 40  1  0
 17 41  1  0
 21 42  1  0
M  END
>  <Energy>  (129) 
-69.949191655444565

>  <compound_id>  (129) 
48762

>  <target_id>  (129) 
1

>  <reference_id>  (129) 
7

>  <inspiration_ids>  (129) 
[7, 114]

>  <energy_score>  (129) 
-1.2541336608710196

>  <distance_score>  (129) 
11.477974099720841

>  <path>  (129) 
/opt/xchem-fragalysis-2/maxwin/BulkDock/SCRATCH/511020/C48762-P7/C48762-P7.minimised.mol

>  <scratch_subdir>  (129) 
/opt/xchem-fragalysis-2/maxwin/BulkDock/SCRATCH/511020/C48762-P7

>  <fragmenstein_runtime>  (129) 
10.242810487747192

>  <fragmenstein_outcome>  (129) 
too moved

>  <fragmenstein_mode>  (129) 
expansion

>  <fragmenstein_error>  (129) 


$$$$
C48762-P114
     RDKit          3D

 42 43  0  0  0  0  0  0  0  0999 V2000
   -9.4970   -1.0827   35.9842 C   0  0  0  0  0  0  0  0  0  0  0  0
   -8.0708   -1.1168   36.0741 O   0  0  0  0  0  0  0  0  0  0  0  0
   -7.4277   -0.7296   34.8380 C   0  0  0  0  0  0  0  0  0  0  0  0
   -5.8892   -0.5343   35.0202 C   0  0  0  0  0  0  0  0  0  0  0  0
   -5.0068   -0.9179   33.8752 N   0  0  0  0  0  0  0  0  0  0  0  0
   -3.9643   -0.0927   33.4322 C   0  0  0  0  0  0  0  0  0  0  0  0
   -2.9974   -0.4949   32.5632 C   0  0  0  0  0  0  0  0  0  0  0  0
   -1.7750    0.3399   32.1782 C   0  0  0  0  0  0  0  0  0  0  0  0
   -0.8725   -0.1091   31.0998 N   0  0  0  0  0  0  0  0  0  0  0  0
    0.3111    0.5207   30.5190 C   0  0  0  0  0  0  0  0  0  0  0  0
    0.8003    1.5979   30.7195 O   0  0  0  0  0  0  0  0  0  0  0  0
    1.0064   -0.3886   29.4303 C   0  0  0  0  0  0  0  0  0  0  0  0
    2.3511    0.2235   28.8858 C   0  0  0  0  0  0  0  0  0  0  0  0
    3.0658   -0.4892   27.7738 C   0  0  0  0  0  0  0  0  0  0  0  0
    3.6866   -1.7226   27.7537 C   0  0  0  0  0  0  0  0  0  0  0  0
    4.2540   -1.8318   26.5139 N   0  0  0  0  0  0  0  0  0  0  0  0
    3.9595   -0.6922   25.8408 C   0  0  0  0  0  0  0  0  0  0  0  0
    3.2951    0.1619   26.5813 N   0  0  0  0  0  0  0  0  0  0  0  0
   -3.1276   -1.8694   32.0315 C   0  0  0  0  0  0  0  0  0  0  0  0
   -2.3399   -2.3383   31.2116 O   0  0  0  0  0  0  0  0  0  0  0  0
   -4.1708   -2.6060   32.4975 N   0  0  0  0  0  0  0  0  0  0  0  0
   -5.0147   -2.2424   33.4938 C   0  0  0  0  0  0  0  0  0  0  0  0
   -5.7176   -3.0945   34.0150 O   0  0  0  0  0  0  0  0  0  0  0  0
   -9.9110   -1.3722   36.9534 H   0  0  0  0  0  0  0  0  0  0  0  0
   -9.8366   -0.0696   35.7500 H   0  0  0  0  0  0  0  0  0  0  0  0
   -9.8469   -1.7843   35.2249 H   0  0  0  0  0  0  0  0  0  0  0  0
   -7.8389    0.2311   34.5103 H   0  0  0  0  0  0  0  0  0  0  0  0
   -7.6540   -1.4781   34.0761 H   0  0  0  0  0  0  0  0  0  0  0  0
   -5.7053    0.5195   35.2633 H   0  0  0  0  0  0  0  0  0  0  0  0
   -5.5459   -1.1121   35.8863 H   0  0  0  0  0  0  0  0  0  0  0  0
   -3.9282    0.9001   33.8733 H   0  0  0  0  0  0  0  0  0  0  0  0
   -2.0913    1.3474   31.9038 H   0  0  0  0  0  0  0  0  0  0  0  0
   -1.1358    0.4455   33.0630 H   0  0  0  0  0  0  0  0  0  0  0  0
   -1.0392   -0.9998   30.6330 H   0  0  0  0  0  0  0  0  0  0  0  0
    0.3012   -0.5179   28.6014 H   0  0  0  0  0  0  0  0  0  0  0  0
    1.2045   -1.3700   29.8754 H   0  0  0  0  0  0  0  0  0  0  0  0
    3.0471    0.3210   29.7294 H   0  0  0  0  0  0  0  0  0  0  0  0
    2.1444    1.2488   28.5509 H   0  0  0  0  0  0  0  0  0  0  0  0
    3.7871   -2.4995   28.4960 H   0  0  0  0  0  0  0  0  0  0  0  0
    4.8087   -2.6055   26.1615 H   0  0  0  0  0  0  0  0  0  0  0  0
    4.2521   -0.5494   24.8219 H   0  0  0  0  0  0  0  0  0  0  0  0
   -4.1801   -3.5844   32.2549 H   0  0  0  0  0  0  0  0  0  0  0  0
  1  2  1  0
  2  3  1  0
  3  4  1  0
  4  5  1  0
  5  6  1  0
  6  7  2  0
  7  8  1  0
  8  9  1  0
  9 10  1  0
 10 11  2  0
 10 12  1  0
 12 13  1  0
 13 14  1  0
 14 15  2  0
 15 16  1  0
 16 17  1  0
 17 18  2  0
  7 19  1  0
 19 20  2  0
 19 21  1  0
 21 22  1  0
 22 23  2  0
 22  5  1  0
 18 14  1  0
  1 24  1  0
  1 25  1  0
  1 26  1  0
  3 27  1  0
  3 28  1  0
  4 29  1  0
  4 30  1  0
  6 31  1  0
  8 32  1  0
  8 33  1  0
  9 34  1  0
 12 35  1  0
 12 36  1  0
 13 37  1  0
 13 38  1  0
 15 39  1  0
 16 40  1  0
 17 41  1  0
 21 42  1  0
M  END
>  <Energy>  (130) 
-80.680849453068063

>  <compound_id>  (130) 
48762

>  <target_id>  (130) 
1

>  <reference_id>  (130) 
114

>  <inspiration_ids>  (130) 
[7, 114]

>  <energy_score>  (130) 
-11.985791458492344

>  <distance_score>  (130) 
11.413513659495546

>  <path>  (130) 
/opt/xchem-fragalysis-2/maxwin/BulkDock/SCRATCH/511020/C48762-P114/C48762-P114.minimised.mol

>  <scratch_subdir>  (130) 
/opt/xchem-fragalysis-2/maxwin/BulkDock/SCRATCH/511020/C48762-P114

>  <fragmenstein_runtime>  (130) 
11.676467895507812

>  <fragmenstein_outcome>  (130) 
too moved

>  <fragmenstein_mode>  (130) 
expansion

>  <fragmenstein_error>  (130) 


$$$$
C32357-P7
     RDKit          3D

 42 43  0  0  0  0  0  0  0  0999 V2000
    0.1261   -8.0217   23.7892 C   0  0  0  0  0  0  0  0  0  0  0  0
    0.1802   -6.6697   24.5261 C   0  0  0  0  0  0  0  0  0  0  0  0
   -0.3799   -6.6563   25.9622 O   0  0  0  0  0  0  0  0  0  0  0  0
   -0.7066   -7.9398   26.6159 C   0  0  0  0  0  0  0  0  0  0  0  0
   -1.6590   -7.7625   27.8554 C   0  0  0  0  0  0  0  0  0  0  0  0
   -1.2916   -7.9224   29.3915 C   0  0  0  0  0  0  0  0  0  0  0  0
   -2.7882   -8.3458   29.6423 C   0  0  0  0  0  0  0  0  0  0  0  0
   -3.1156   -9.2390   30.7342 O   0  0  0  0  0  0  0  0  0  0  0  0
   -3.8956   -8.7809   31.8717 C   0  0  0  0  0  0  0  0  0  0  0  0
   -3.1843   -7.6362   32.5936 C   0  0  0  0  0  0  0  0  0  0  0  0
   -3.9475   -9.9905   32.8199 C   0  0  0  0  0  0  0  0  0  0  0  0
   -5.3288   -8.4375   31.4583 C   0  0  0  0  0  0  0  0  0  0  0  0
   -2.7141   -8.9011   28.1932 C   0  0  0  0  0  0  0  0  0  0  0  0
    1.8077   -5.8095   24.2360 C   0  0  0  0  0  0  0  0  0  0  0  0
    2.3550   -4.4284   25.2164 N   0  0  0  0  0  0  0  0  0  0  0  0
    3.2585   -3.4165   24.9885 C   0  0  0  0  0  0  0  0  0  0  0  0
    4.1490   -4.3688   25.0081 C   0  0  0  0  0  0  0  0  0  0  0  0
    3.3669   -6.0720   25.0224 N   0  0  0  0  0  0  0  0  0  0  0  0
   -0.8924   -8.4140   23.7617 H   0  0  0  0  0  0  0  0  0  0  0  0
    0.4661   -7.9358   22.7543 H   0  0  0  0  0  0  0  0  0  0  0  0
    0.7392   -8.7872   24.2752 H   0  0  0  0  0  0  0  0  0  0  0  0
   -0.4743   -5.9293   24.0984 H   0  0  0  0  0  0  0  0  0  0  0  0
   -1.2227   -8.5758   25.8963 H   0  0  0  0  0  0  0  0  0  0  0  0
    0.2078   -8.4447   26.9311 H   0  0  0  0  0  0  0  0  0  0  0  0
   -2.1278   -6.8029   27.6739 H   0  0  0  0  0  0  0  0  0  0  0  0
   -0.5665   -8.7202   29.5960 H   0  0  0  0  0  0  0  0  0  0  0  0
   -0.9450   -7.0168   29.8928 H   0  0  0  0  0  0  0  0  0  0  0  0
   -3.5144   -7.5596   29.6454 H   0  0  0  0  0  0  0  0  0  0  0  0
   -3.7301   -7.3286   33.4917 H   0  0  0  0  0  0  0  0  0  0  0  0
   -2.1718   -7.9349   32.8893 H   0  0  0  0  0  0  0  0  0  0  0  0
   -3.0635   -6.7599   31.9563 H   0  0  0  0  0  0  0  0  0  0  0  0
   -4.4109  -10.8533   32.3271 H   0  0  0  0  0  0  0  0  0  0  0  0
   -2.9374  -10.3064   33.1061 H   0  0  0  0  0  0  0  0  0  0  0  0
   -4.5120   -9.7678   33.7315 H   0  0  0  0  0  0  0  0  0  0  0  0
   -5.7881   -9.2770   30.9236 H   0  0  0  0  0  0  0  0  0  0  0  0
   -5.9492   -8.2009   32.3294 H   0  0  0  0  0  0  0  0  0  0  0  0
   -5.3755   -7.5848   30.7792 H   0  0  0  0  0  0  0  0  0  0  0  0
   -3.6471   -8.8618   27.6269 H   0  0  0  0  0  0  0  0  0  0  0  0
   -2.3123   -9.9196   28.1234 H   0  0  0  0  0  0  0  0  0  0  0  0
    3.2055   -2.3429   24.9904 H   0  0  0  0  0  0  0  0  0  0  0  0
    5.1238   -4.5168   24.6449 H   0  0  0  0  0  0  0  0  0  0  0  0
    2.7001   -5.9798   25.7100 H   0  0  0  0  0  0  0  0  0  0  0  0
  1  2  1  0
  2  3  1  0
  3  4  1  0
  4  5  1  0
  5  6  1  0
  6  7  1  0
  7  8  1  0
  8  9  1  0
  9 10  1  0
  9 11  1  0
  9 12  1  0
  7 13  1  0
  2 14  1  0
 14 15  2  0
 15 16  1  0
 16 17  2  0
 17 18  1  0
 13  5  1  0
 18 14  1  0
  1 19  1  0
  1 20  1  0
  1 21  1  0
  2 22  1  0
  4 23  1  0
  4 24  1  0
  5 25  1  0
  6 26  1  0
  6 27  1  0
  7 28  1  0
 10 29  1  0
 10 30  1  0
 10 31  1  0
 11 32  1  0
 11 33  1  0
 11 34  1  0
 12 35  1  0
 12 36  1  0
 12 37  1  0
 13 38  1  0
 13 39  1  0
 16 40  1  0
 17 41  1  0
 18 42  1  0
M  END
>  <Energy>  (131) 
388.12872711704091

>  <compound_id>  (131) 
32357

>  <target_id>  (131) 
1

>  <reference_id>  (131) 
7

>  <inspiration_ids>  (131) 
[7, 114]

>  <energy_score>  (131) 
309.87175616068816

>  <distance_score>  (131) 
13.653201801485642

>  <path>  (131) 
/opt/xchem-fragalysis-2/maxwin/BulkDock/SCRATCH/511020/C32357-P7/C32357-P7.minimised.mol

>  <scratch_subdir>  (131) 
/opt/xchem-fragalysis-2/maxwin/BulkDock/SCRATCH/511020/C32357-P7

>  <fragmenstein_runtime>  (131) 
9.492785930633545

>  <fragmenstein_outcome>  (131) 
too moved

>  <fragmenstein_mode>  (131) 
expansion

>  <fragmenstein_error>  (131) 


$$$$
C32357-P114
     RDKit          3D

 42 43  0  0  0  0  0  0  0  0999 V2000
   -3.6211   -3.0533   22.1264 C   0  0  0  0  0  0  0  0  0  0  0  0
   -2.0652   -1.9814   22.3253 C   0  0  0  0  0  0  0  0  0  0  0  0
   -2.9010   -2.2749   23.9739 O   0  0  0  0  0  0  0  0  0  0  0  0
   -3.7855   -1.7429   25.4430 C   0  0  0  0  0  0  0  0  0  0  0  0
   -5.6435   -2.1290   25.9785 C   0  0  0  0  0  0  0  0  0  0  0  0
   -7.1955   -2.4342   27.3234 C   0  0  0  0  0  0  0  0  0  0  0  0
   -8.2710   -1.8622   26.4345 C   0  0  0  0  0  0  0  0  0  0  0  0
   -9.1839   -0.8909   27.0193 O   0  0  0  0  0  0  0  0  0  0  0  0
  -10.4447   -0.6400   26.3561 C   0  0  0  0  0  0  0  0  0  0  0  0
  -10.4171   -0.8823   24.8285 C   0  0  0  0  0  0  0  0  0  0  0  0
  -11.5177   -1.5487   26.9595 C   0  0  0  0  0  0  0  0  0  0  0  0
  -10.7715    0.8504   26.5279 C   0  0  0  0  0  0  0  0  0  0  0  0
   -7.2653   -1.3418   25.3958 C   0  0  0  0  0  0  0  0  0  0  0  0
   -0.1690   -1.8202   21.3360 C   0  0  0  0  0  0  0  0  0  0  0  0
    1.0450   -1.4640   19.9804 N   0  0  0  0  0  0  0  0  0  0  0  0
    1.3050   -1.2204   18.2798 C   0  0  0  0  0  0  0  0  0  0  0  0
    0.0104   -1.2275   18.0740 C   0  0  0  0  0  0  0  0  0  0  0  0
    0.3668   -0.9078   19.6544 N   0  0  0  0  0  0  0  0  0  0  0  0
   -3.7343   -3.4110   23.1250 H   0  0  0  0  0  0  0  0  0  0  0  0
   -4.6641   -2.9047   22.2861 H   0  0  0  0  0  0  0  0  0  0  0  0
   -3.7698   -4.0810   21.7220 H   0  0  0  0  0  0  0  0  0  0  0  0
   -1.3184   -2.4698   22.9391 H   0  0  0  0  0  0  0  0  0  0  0  0
   -3.2571   -2.2651   26.2287 H   0  0  0  0  0  0  0  0  0  0  0  0
   -3.4553   -0.7120   25.5804 H   0  0  0  0  0  0  0  0  0  0  0  0
   -5.0467   -2.5227   26.8634 H   0  0  0  0  0  0  0  0  0  0  0  0
   -7.2314   -1.8934   28.2743 H   0  0  0  0  0  0  0  0  0  0  0  0
   -7.5154   -3.4079   27.7321 H   0  0  0  0  0  0  0  0  0  0  0  0
   -8.8651   -2.7048   26.0507 H   0  0  0  0  0  0  0  0  0  0  0  0
  -11.3732   -0.6049   24.3690 H   0  0  0  0  0  0  0  0  0  0  0  0
   -9.6325   -0.2911   24.3451 H   0  0  0  0  0  0  0  0  0  0  0  0
  -10.2364   -1.9321   24.5769 H   0  0  0  0  0  0  0  0  0  0  0  0
  -12.5112   -1.3218   26.5589 H   0  0  0  0  0  0  0  0  0  0  0  0
  -11.2967   -2.6006   26.7437 H   0  0  0  0  0  0  0  0  0  0  0  0
  -11.5612   -1.4753   28.0451 H   0  0  0  0  0  0  0  0  0  0  0  0
  -10.7186    1.1857   27.5605 H   0  0  0  0  0  0  0  0  0  0  0  0
  -10.0375    1.4644   25.9913 H   0  0  0  0  0  0  0  0  0  0  0  0
  -11.7663    1.0938   26.1397 H   0  0  0  0  0  0  0  0  0  0  0  0
   -7.3590   -0.2671   25.2668 H   0  0  0  0  0  0  0  0  0  0  0  0
   -7.6349   -1.7934   24.4753 H   0  0  0  0  0  0  0  0  0  0  0  0
    2.2845   -1.3811   17.8556 H   0  0  0  0  0  0  0  0  0  0  0  0
   -0.7347   -1.9534   17.7755 H   0  0  0  0  0  0  0  0  0  0  0  0
    1.1761   -0.2414   19.8578 H   0  0  0  0  0  0  0  0  0  0  0  0
  1  2  1  0
  2  3  1  0
  3  4  1  0
  4  5  1  0
  5  6  1  0
  6  7  1  0
  7  8  1  0
  8  9  1  0
  9 10  1  0
  9 11  1  0
  9 12  1  0
  7 13  1  0
  2 14  1  0
 14 15  2  0
 15 16  1  0
 16 17  2  0
 17 18  1  0
 13  5  1  0
 18 14  1  0
  1 19  1  0
  1 20  1  0
  1 21  1  0
  2 22  1  0
  4 23  1  0
  4 24  1  0
  5 25  1  0
  6 26  1  0
  6 27  1  0
  7 28  1  0
 10 29  1  0
 10 30  1  0
 10 31  1  0
 11 32  1  0
 11 33  1  0
 11 34  1  0
 12 35  1  0
 12 36  1  0
 12 37  1  0
 13 38  1  0
 13 39  1  0
 16 40  1  0
 17 41  1  0
 18 42  1  0
M  END
>  <Energy>  (132) 
1307.087576985489

>  <compound_id>  (132) 
32357

>  <target_id>  (132) 
1

>  <reference_id>  (132) 
114

>  <inspiration_ids>  (132) 
[7, 114]

>  <energy_score>  (132) 
1228.83060602913

>  <distance_score>  (132) 
12.376994424014

>  <path>  (132) 
/opt/xchem-fragalysis-2/maxwin/BulkDock/SCRATCH/511020/C32357-P114/C32357-P114.minimised.mol

>  <scratch_subdir>  (132) 
/opt/xchem-fragalysis-2/maxwin/BulkDock/SCRATCH/511020/C32357-P114

>  <fragmenstein_runtime>  (132) 
11.725629091262817

>  <fragmenstein_outcome>  (132) 
too moved

>  <fragmenstein_mode>  (132) 
expansion

>  <fragmenstein_error>  (132) 


$$$$
C32358-P7
     RDKit          3D

 44 45  0  0  0  0  0  0  0  0999 V2000
   -8.2683    2.8925   34.4681 C   0  0  0  0  0  0  0  0  0  0  0  0
   -8.8623    1.6193   34.6898 O   0  0  0  0  0  0  0  0  0  0  0  0
   -8.0328    0.7552   35.4848 C   0  0  0  0  0  0  0  0  0  0  0  0
   -8.9559   -0.0861   36.3664 C   0  0  0  0  0  0  0  0  0  0  0  0
   -7.1202   -0.1075   34.6528 C   0  0  0  0  0  0  0  0  0  0  0  0
   -6.7926   -0.0812   33.3075 C   0  0  0  0  0  0  0  0  0  0  0  0
   -5.8130   -1.0274   33.1674 N   0  0  0  0  0  0  0  0  0  0  0  0
   -5.0390   -1.4032   31.9833 C   0  0  0  0  0  0  0  0  0  0  0  0
   -3.7703   -0.5406   31.7716 C   0  0  0  0  0  0  0  0  0  0  0  0
   -2.7451   -0.9228   30.5998 C   0  0  0  0  0  0  0  0  0  0  0  0
   -1.8085    0.2910   30.2242 C   0  0  0  0  0  0  0  0  0  0  0  0
   -1.8218    1.2068   31.0106 O   0  0  0  0  0  0  0  0  0  0  0  0
   -1.1445    0.1644   28.9346 N   0  0  0  0  0  0  0  0  0  0  0  0
   -0.3823    1.1486   28.1496 C   0  0  0  0  0  0  0  0  0  0  0  0
    0.3313   -0.4764   29.1227 C   0  0  0  0  0  0  0  0  0  0  0  0
    1.4849   -0.5992   28.0222 C   0  0  0  0  0  0  0  0  0  0  0  0
    2.3022    0.3717   27.6170 N   0  0  0  0  0  0  0  0  0  0  0  0
    3.2511   -0.2006   26.7948 C   0  0  0  0  0  0  0  0  0  0  0  0
    3.0419   -1.5491   26.7104 C   0  0  0  0  0  0  0  0  0  0  0  0
    1.9101   -1.7874   27.4558 N   0  0  0  0  0  0  0  0  0  0  0  0
   -5.6020   -1.6594   34.3359 N   0  0  0  0  0  0  0  0  0  0  0  0
   -6.3817   -1.0976   35.2506 N   0  0  0  0  0  0  0  0  0  0  0  0
   -8.9283    3.4680   33.8137 H   0  0  0  0  0  0  0  0  0  0  0  0
   -7.2938    2.7949   33.9813 H   0  0  0  0  0  0  0  0  0  0  0  0
   -8.1636    3.4314   35.4147 H   0  0  0  0  0  0  0  0  0  0  0  0
   -7.4097    1.3634   36.1544 H   0  0  0  0  0  0  0  0  0  0  0  0
   -9.6513    0.5571   36.9165 H   0  0  0  0  0  0  0  0  0  0  0  0
   -9.5617   -0.7794   35.7747 H   0  0  0  0  0  0  0  0  0  0  0  0
   -8.3860   -0.6785   37.0903 H   0  0  0  0  0  0  0  0  0  0  0  0
   -7.1253    0.5392   32.4894 H   0  0  0  0  0  0  0  0  0  0  0  0
   -5.7095   -1.3133   31.1217 H   0  0  0  0  0  0  0  0  0  0  0  0
   -4.7677   -2.4591   32.0931 H   0  0  0  0  0  0  0  0  0  0  0  0
   -3.1952   -0.5144   32.7069 H   0  0  0  0  0  0  0  0  0  0  0  0
   -4.1096    0.4906   31.6047 H   0  0  0  0  0  0  0  0  0  0  0  0
   -2.1248   -1.7683   30.9116 H   0  0  0  0  0  0  0  0  0  0  0  0
   -3.3150   -1.1990   29.7064 H   0  0  0  0  0  0  0  0  0  0  0  0
   -1.1289    1.9385   27.9706 H   0  0  0  0  0  0  0  0  0  0  0  0
   -0.1640    0.8134   27.1309 H   0  0  0  0  0  0  0  0  0  0  0  0
    0.3887    1.7145   28.6933 H   0  0  0  0  0  0  0  0  0  0  0  0
    0.7782   -0.0008   30.0120 H   0  0  0  0  0  0  0  0  0  0  0  0
    0.1088   -1.5053   29.4413 H   0  0  0  0  0  0  0  0  0  0  0  0
    4.0128    0.3904   26.3033 H   0  0  0  0  0  0  0  0  0  0  0  0
    3.5333   -2.3291   26.1469 H   0  0  0  0  0  0  0  0  0  0  0  0
    1.4467   -2.6806   27.5364 H   0  0  0  0  0  0  0  0  0  0  0  0
  1  2  1  0
  2  3  1  0
  3  4  1  0
  3  5  1  0
  5  6  2  0
  6  7  1  0
  7  8  1  0
  8  9  1  0
  9 10  1  0
 10 11  1  0
 11 12  2  0
 11 13  1  0
 13 14  1  0
 13 15  1  0
 15 16  1  0
 16 17  2  0
 17 18  1  0
 18 19  2  0
 19 20  1  0
  7 21  1  0
 21 22  2  0
 22  5  1  0
 20 16  1  0
  1 23  1  0
  1 24  1  0
  1 25  1  0
  3 26  1  0
  4 27  1  0
  4 28  1  0
  4 29  1  0
  6 30  1  0
  8 31  1  0
  8 32  1  0
  9 33  1  0
  9 34  1  0
 10 35  1  0
 10 36  1  0
 14 37  1  0
 14 38  1  0
 14 39  1  0
 15 40  1  0
 15 41  1  0
 18 42  1  0
 19 43  1  0
 20 44  1  0
M  END
>  <Energy>  (133) 
101.94165914298009

>  <compound_id>  (133) 
32358

>  <target_id>  (133) 
1

>  <reference_id>  (133) 
7

>  <inspiration_ids>  (133) 
[7, 114]

>  <energy_score>  (133) 
68.72990127675214

>  <distance_score>  (133) 
12.02688139590006

>  <path>  (133) 
/opt/xchem-fragalysis-2/maxwin/BulkDock/SCRATCH/511020/C32358-P7/C32358-P7.minimised.mol

>  <scratch_subdir>  (133) 
/opt/xchem-fragalysis-2/maxwin/BulkDock/SCRATCH/511020/C32358-P7

>  <fragmenstein_runtime>  (133) 
9.565778255462646

>  <fragmenstein_outcome>  (133) 
too moved

>  <fragmenstein_mode>  (133) 
expansion

>  <fragmenstein_error>  (133) 


$$$$
C32358-P114
     RDKit          3D

 44 45  0  0  0  0  0  0  0  0999 V2000
   -8.5741   -1.0160   38.7674 C   0  0  0  0  0  0  0  0  0  0  0  0
   -8.2774   -1.2159   37.3900 O   0  0  0  0  0  0  0  0  0  0  0  0
   -8.5003   -0.0339   36.5961 C   0  0  0  0  0  0  0  0  0  0  0  0
   -9.9266   -0.1013   36.0558 C   0  0  0  0  0  0  0  0  0  0  0  0
   -7.4684    0.0674   35.5044 C   0  0  0  0  0  0  0  0  0  0  0  0
   -6.1909   -0.4548   35.4233 C   0  0  0  0  0  0  0  0  0  0  0  0
   -5.6962   -0.0083   34.2268 N   0  0  0  0  0  0  0  0  0  0  0  0
   -4.3127   -0.0238   33.7722 C   0  0  0  0  0  0  0  0  0  0  0  0
   -3.9904   -0.8007   32.4770 C   0  0  0  0  0  0  0  0  0  0  0  0
   -2.5119   -0.5525   31.9041 C   0  0  0  0  0  0  0  0  0  0  0  0
   -2.1506   -1.5913   30.8025 C   0  0  0  0  0  0  0  0  0  0  0  0
   -2.5613   -2.7066   31.0124 O   0  0  0  0  0  0  0  0  0  0  0  0
   -1.4637   -1.0435   29.6490 N   0  0  0  0  0  0  0  0  0  0  0  0
   -1.1570   -1.6443   28.3461 C   0  0  0  0  0  0  0  0  0  0  0  0
    0.1348   -1.1887   29.8281 C   0  0  0  0  0  0  0  0  0  0  0  0
    1.2527   -0.9921   28.7130 C   0  0  0  0  0  0  0  0  0  0  0  0
    1.8698   -1.9697   28.0581 N   0  0  0  0  0  0  0  0  0  0  0  0
    2.7730   -1.3801   27.2002 C   0  0  0  0  0  0  0  0  0  0  0  0
    2.7505   -0.0180   27.3620 C   0  0  0  0  0  0  0  0  0  0  0  0
    1.7808    0.2192   28.3080 N   0  0  0  0  0  0  0  0  0  0  0  0
   -6.6018    0.7772   33.6158 N   0  0  0  0  0  0  0  0  0  0  0  0
   -7.6735    0.8503   34.3969 N   0  0  0  0  0  0  0  0  0  0  0  0
   -7.9119   -0.2555   39.1921 H   0  0  0  0  0  0  0  0  0  0  0  0
   -8.4016   -1.9578   39.2951 H   0  0  0  0  0  0  0  0  0  0  0  0
   -9.6195   -0.7266   38.9045 H   0  0  0  0  0  0  0  0  0  0  0  0
   -8.3908    0.8620   37.2217 H   0  0  0  0  0  0  0  0  0  0  0  0
  -10.1708    0.7729   35.4443 H   0  0  0  0  0  0  0  0  0  0  0  0
  -10.0712   -1.0037   35.4511 H   0  0  0  0  0  0  0  0  0  0  0  0
  -10.6535   -0.1559   36.8727 H   0  0  0  0  0  0  0  0  0  0  0  0
   -5.6004   -1.0427   36.1075 H   0  0  0  0  0  0  0  0  0  0  0  0
   -4.0250    1.0277   33.6475 H   0  0  0  0  0  0  0  0  0  0  0  0
   -3.7064   -0.4248   34.5930 H   0  0  0  0  0  0  0  0  0  0  0  0
   -4.7041   -0.5300   31.6889 H   0  0  0  0  0  0  0  0  0  0  0  0
   -4.1415   -1.8690   32.6729 H   0  0  0  0  0  0  0  0  0  0  0  0
   -1.7812   -0.6594   32.7128 H   0  0  0  0  0  0  0  0  0  0  0  0
   -2.4476    0.4623   31.4988 H   0  0  0  0  0  0  0  0  0  0  0  0
   -0.7298   -2.6575   28.3663 H   0  0  0  0  0  0  0  0  0  0  0  0
   -0.7671   -0.9243   27.6188 H   0  0  0  0  0  0  0  0  0  0  0  0
   -2.1626   -1.8300   27.9453 H   0  0  0  0  0  0  0  0  0  0  0  0
    0.3124   -2.1719   30.2956 H   0  0  0  0  0  0  0  0  0  0  0  0
    0.3631   -0.4584   30.6181 H   0  0  0  0  0  0  0  0  0  0  0  0
    3.3710   -1.9687   26.5148 H   0  0  0  0  0  0  0  0  0  0  0  0
    3.2984    0.7790   26.8808 H   0  0  0  0  0  0  0  0  0  0  0  0
    1.4995    1.1252   28.6550 H   0  0  0  0  0  0  0  0  0  0  0  0
  1  2  1  0
  2  3  1  0
  3  4  1  0
  3  5  1  0
  5  6  2  0
  6  7  1  0
  7  8  1  0
  8  9  1  0
  9 10  1  0
 10 11  1  0
 11 12  2  0
 11 13  1  0
 13 14  1  0
 13 15  1  0
 15 16  1  0
 16 17  2  0
 17 18  1  0
 18 19  2  0
 19 20  1  0
  7 21  1  0
 21 22  2  0
 22  5  1  0
 20 16  1  0
  1 23  1  0
  1 24  1  0
  1 25  1  0
  3 26  1  0
  4 27  1  0
  4 28  1  0
  4 29  1  0
  6 30  1  0
  8 31  1  0
  8 32  1  0
  9 33  1  0
  9 34  1  0
 10 35  1  0
 10 36  1  0
 14 37  1  0
 14 38  1  0
 14 39  1  0
 15 40  1  0
 15 41  1  0
 18 42  1  0
 19 43  1  0
 20 44  1  0
M  END
>  <Energy>  (134) 
101.60279812381771

>  <compound_id>  (134) 
32358

>  <target_id>  (134) 
1

>  <reference_id>  (134) 
114

>  <inspiration_ids>  (134) 
[7, 114]

>  <energy_score>  (134) 
68.39104025758914

>  <distance_score>  (134) 
12.108619683987571

>  <path>  (134) 
/opt/xchem-fragalysis-2/maxwin/BulkDock/SCRATCH/511020/C32358-P114/C32358-P114.minimised.mol

>  <scratch_subdir>  (134) 
/opt/xchem-fragalysis-2/maxwin/BulkDock/SCRATCH/511020/C32358-P114

>  <fragmenstein_runtime>  (134) 
14.682558059692383

>  <fragmenstein_outcome>  (134) 
too moved

>  <fragmenstein_mode>  (134) 
expansion

>  <fragmenstein_error>  (134) 


$$$$
C32359-P7
     RDKit          3D

 43 44  0  0  0  0  0  0  0  0999 V2000
  -14.7040    1.8203   33.1282 C   0  0  0  0  0  0  0  0  0  0  0  0
  -14.5418    1.5879   31.7331 O   0  0  0  0  0  0  0  0  0  0  0  0
  -13.5882    2.4888   31.1321 C   0  0  0  0  0  0  0  0  0  0  0  0
  -13.5295    2.2729   29.5952 C   0  0  0  0  0  0  0  0  0  0  0  0
  -12.2772    2.6713   28.7950 C   0  0  0  0  0  0  0  0  0  0  0  0
  -11.6607    3.9292   28.8530 C   0  0  0  0  0  0  0  0  0  0  0  0
  -10.4759    4.2270   28.1077 C   0  0  0  0  0  0  0  0  0  0  0  0
   -9.8712    3.2655   27.2810 C   0  0  0  0  0  0  0  0  0  0  0  0
   -8.7059    3.7467   25.9360 S   0  0  0  0  0  0  0  0  0  0  0  0
   -9.0338    5.1201   25.6061 O   0  0  0  0  0  0  0  0  0  0  0  0
   -8.7831    2.7028   24.9354 O   0  0  0  0  0  0  0  0  0  0  0  0
   -7.0594    3.8428   26.4829 N   0  0  0  0  0  0  0  0  0  0  0  0
   -5.9914    3.2032   25.5596 C   0  0  0  0  0  0  0  0  0  0  0  0
   -4.6358    3.9984   25.4140 C   0  0  0  0  0  0  0  0  0  0  0  0
   -3.3139    3.1694   25.6135 C   0  0  0  0  0  0  0  0  0  0  0  0
   -2.1703    3.3220   24.5758 C   0  0  0  0  0  0  0  0  0  0  0  0
   -1.8665    2.5107   23.5663 N   0  0  0  0  0  0  0  0  0  0  0  0
   -0.7805    3.0772   22.9265 C   0  0  0  0  0  0  0  0  0  0  0  0
   -0.2989    4.1367   23.6461 C   0  0  0  0  0  0  0  0  0  0  0  0
   -1.1828    4.2854   24.6825 N   0  0  0  0  0  0  0  0  0  0  0  0
  -10.5105    2.0224   27.1834 C   0  0  0  0  0  0  0  0  0  0  0  0
  -11.7062    1.7525   27.8917 C   0  0  0  0  0  0  0  0  0  0  0  0
  -14.9661    2.8664   33.3144 H   0  0  0  0  0  0  0  0  0  0  0  0
  -13.7855    1.5652   33.6631 H   0  0  0  0  0  0  0  0  0  0  0  0
  -15.5243    1.1962   33.4869 H   0  0  0  0  0  0  0  0  0  0  0  0
  -13.8809    3.5252   31.3377 H   0  0  0  0  0  0  0  0  0  0  0  0
  -12.6294    2.3088   31.6085 H   0  0  0  0  0  0  0  0  0  0  0  0
  -13.7482    1.2157   29.3937 H   0  0  0  0  0  0  0  0  0  0  0  0
  -14.3769    2.8102   29.1476 H   0  0  0  0  0  0  0  0  0  0  0  0
  -12.1010    4.7128   29.4669 H   0  0  0  0  0  0  0  0  0  0  0  0
  -10.0856    5.2427   28.1267 H   0  0  0  0  0  0  0  0  0  0  0  0
   -6.8804    4.8452   26.5606 H   0  0  0  0  0  0  0  0  0  0  0  0
   -5.8037    2.2045   25.9525 H   0  0  0  0  0  0  0  0  0  0  0  0
   -6.4095    3.1052   24.5531 H   0  0  0  0  0  0  0  0  0  0  0  0
   -4.6261    4.8329   26.1249 H   0  0  0  0  0  0  0  0  0  0  0  0
   -4.6221    4.4514   24.4147 H   0  0  0  0  0  0  0  0  0  0  0  0
   -3.5450    2.1042   25.7024 H   0  0  0  0  0  0  0  0  0  0  0  0
   -2.8954    3.4475   26.5904 H   0  0  0  0  0  0  0  0  0  0  0  0
   -0.3913    2.6923   21.9943 H   0  0  0  0  0  0  0  0  0  0  0  0
    0.5365    4.8051   23.4959 H   0  0  0  0  0  0  0  0  0  0  0  0
   -1.1417    4.9968   25.3987 H   0  0  0  0  0  0  0  0  0  0  0  0
  -10.1435    1.2726   26.4838 H   0  0  0  0  0  0  0  0  0  0  0  0
  -12.1776    0.7812   27.7405 H   0  0  0  0  0  0  0  0  0  0  0  0
  1  2  1  0
  2  3  1  0
  3  4  1  0
  4  5  1  0
  5  6  2  0
  6  7  1  0
  7  8  2  0
  8  9  1  0
  9 10  2  0
  9 11  2  0
  9 12  1  0
 12 13  1  0
 13 14  1  0
 14 15  1  0
 15 16  1  0
 16 17  2  0
 17 18  1  0
 18 19  2  0
 19 20  1  0
  8 21  1  0
 21 22  2  0
 22  5  1  0
 20 16  1  0
  1 23  1  0
  1 24  1  0
  1 25  1  0
  3 26  1  0
  3 27  1  0
  4 28  1  0
  4 29  1  0
  6 30  1  0
  7 31  1  0
 12 32  1  0
 13 33  1  0
 13 34  1  0
 14 35  1  0
 14 36  1  0
 15 37  1  0
 15 38  1  0
 18 39  1  0
 19 40  1  0
 20 41  1  0
 21 42  1  0
 22 43  1  0
M  END
>  <Energy>  (135) 
11.247147501698397

>  <compound_id>  (135) 
32359

>  <target_id>  (135) 
1

>  <reference_id>  (135) 
7

>  <inspiration_ids>  (135) 
[7, 114]

>  <energy_score>  (135) 
-7.535204594994525

>  <distance_score>  (135) 
12.697645162730758

>  <path>  (135) 
/opt/xchem-fragalysis-2/maxwin/BulkDock/SCRATCH/511020/C32359-P7/C32359-P7.minimised.mol

>  <scratch_subdir>  (135) 
/opt/xchem-fragalysis-2/maxwin/BulkDock/SCRATCH/511020/C32359-P7

>  <fragmenstein_runtime>  (135) 
11.156167268753052

>  <fragmenstein_outcome>  (135) 
too moved

>  <fragmenstein_mode>  (135) 
expansion

>  <fragmenstein_error>  (135) 


$$$$
C32359-P114
     RDKit          3D

 43 44  0  0  0  0  0  0  0  0999 V2000
   -6.4810   -0.7996   34.1385 C   0  0  0  0  0  0  0  0  0  0  0  0
   -5.2408   -1.4354   33.8219 O   0  0  0  0  0  0  0  0  0  0  0  0
   -4.3195   -0.5733   33.0953 C   0  0  0  0  0  0  0  0  0  0  0  0
   -3.2819   -1.4849   32.3845 C   0  0  0  0  0  0  0  0  0  0  0  0
   -2.2254   -1.1958   31.3037 C   0  0  0  0  0  0  0  0  0  0  0  0
   -1.7114   -2.3172   30.6059 C   0  0  0  0  0  0  0  0  0  0  0  0
   -0.6208   -2.2749   29.6839 C   0  0  0  0  0  0  0  0  0  0  0  0
    0.0651   -1.0864   29.4186 C   0  0  0  0  0  0  0  0  0  0  0  0
    1.8948   -1.2373   28.7832 S   0  0  0  0  0  0  0  0  0  0  0  0
    2.2678   -2.6193   29.0141 O   0  0  0  0  0  0  0  0  0  0  0  0
    2.5966   -0.1665   29.4675 O   0  0  0  0  0  0  0  0  0  0  0  0
    2.2025   -0.8972   27.0676 N   0  0  0  0  0  0  0  0  0  0  0  0
    3.3922   -1.7711   26.3276 C   0  0  0  0  0  0  0  0  0  0  0  0
    4.2645   -1.0266   25.1455 C   0  0  0  0  0  0  0  0  0  0  0  0
    4.8425   -1.8654   23.6956 C   0  0  0  0  0  0  0  0  0  0  0  0
    5.8688   -1.4033   22.1787 C   0  0  0  0  0  0  0  0  0  0  0  0
    6.6795   -2.0145   21.3189 N   0  0  0  0  0  0  0  0  0  0  0  0
    7.1184   -0.9939   20.4364 C   0  0  0  0  0  0  0  0  0  0  0  0
    6.9227    0.2801   20.8342 C   0  0  0  0  0  0  0  0  0  0  0  0
    5.9986    0.0696   21.7716 N   0  0  0  0  0  0  0  0  0  0  0  0
   -0.4127    0.0490   30.1284 C   0  0  0  0  0  0  0  0  0  0  0  0
   -1.5597    0.0015   31.0308 C   0  0  0  0  0  0  0  0  0  0  0  0
   -7.0087   -0.5366   33.2175 H   0  0  0  0  0  0  0  0  0  0  0  0
   -6.3003    0.0958   34.7401 H   0  0  0  0  0  0  0  0  0  0  0  0
   -7.0957   -1.4966   34.7116 H   0  0  0  0  0  0  0  0  0  0  0  0
   -4.8641    0.0620   32.4008 H   0  0  0  0  0  0  0  0  0  0  0  0
   -3.8147    0.0779   33.8172 H   0  0  0  0  0  0  0  0  0  0  0  0
   -3.8734   -2.3214   31.9930 H   0  0  0  0  0  0  0  0  0  0  0  0
   -2.6623   -1.8780   33.1989 H   0  0  0  0  0  0  0  0  0  0  0  0
   -2.1039   -3.3021   30.8351 H   0  0  0  0  0  0  0  0  0  0  0  0
   -0.2564   -3.2116   29.2624 H   0  0  0  0  0  0  0  0  0  0  0  0
    2.5250    0.0725   27.0541 H   0  0  0  0  0  0  0  0  0  0  0  0
    2.9685   -2.7040   25.9730 H   0  0  0  0  0  0  0  0  0  0  0  0
    4.0998   -2.0096   27.1313 H   0  0  0  0  0  0  0  0  0  0  0  0
    5.1537   -0.7619   25.7137 H   0  0  0  0  0  0  0  0  0  0  0  0
    3.7716   -0.0856   24.9270 H   0  0  0  0  0  0  0  0  0  0  0  0
    3.9660   -2.4319   23.4022 H   0  0  0  0  0  0  0  0  0  0  0  0
    5.6885   -2.3871   24.1169 H   0  0  0  0  0  0  0  0  0  0  0  0
    7.6462   -1.1429   19.5284 H   0  0  0  0  0  0  0  0  0  0  0  0
    7.1152    1.2559   20.4278 H   0  0  0  0  0  0  0  0  0  0  0  0
    5.2485    0.7079   22.0381 H   0  0  0  0  0  0  0  0  0  0  0  0
    0.1462    0.9824   30.0586 H   0  0  0  0  0  0  0  0  0  0  0  0
   -1.8333    0.9135   31.5579 H   0  0  0  0  0  0  0  0  0  0  0  0
  1  2  1  0
  2  3  1  0
  3  4  1  0
  4  5  1  0
  5  6  2  0
  6  7  1  0
  7  8  2  0
  8  9  1  0
  9 10  2  0
  9 11  2  0
  9 12  1  0
 12 13  1  0
 13 14  1  0
 14 15  1  0
 15 16  1  0
 16 17  2  0
 17 18  1  0
 18 19  2  0
 19 20  1  0
  8 21  1  0
 21 22  2  0
 22  5  1  0
 20 16  1  0
  1 23  1  0
  1 24  1  0
  1 25  1  0
  3 26  1  0
  3 27  1  0
  4 28  1  0
  4 29  1  0
  6 30  1  0
  7 31  1  0
 12 32  1  0
 13 33  1  0
 13 34  1  0
 14 35  1  0
 14 36  1  0
 15 37  1  0
 15 38  1  0
 18 39  1  0
 19 40  1  0
 20 41  1  0
 21 42  1  0
 22 43  1  0
M  END
>  <Energy>  (136) 
137.43401193407325

>  <compound_id>  (136) 
32359

>  <target_id>  (136) 
1

>  <reference_id>  (136) 
114

>  <inspiration_ids>  (136) 
[7, 114]

>  <energy_score>  (136) 
118.65165983738325

>  <distance_score>  (136) 
10.754063535504233

>  <path>  (136) 
/opt/xchem-fragalysis-2/maxwin/BulkDock/SCRATCH/511020/C32359-P114/C32359-P114.minimised.mol

>  <scratch_subdir>  (136) 
/opt/xchem-fragalysis-2/maxwin/BulkDock/SCRATCH/511020/C32359-P114

>  <fragmenstein_runtime>  (136) 
15.092491865158081

>  <fragmenstein_outcome>  (136) 
too moved

>  <fragmenstein_mode>  (136) 
expansion

>  <fragmenstein_error>  (136) 


$$$$
C32360-P7
     RDKit          3D

 39 40  0  0  0  0  0  0  0  0999 V2000
  -11.0987   -2.4637   36.7608 C   0  0  0  0  0  0  0  0  0  0  0  0
  -10.0459   -1.8352   36.0196 O   0  0  0  0  0  0  0  0  0  0  0  0
   -9.2579   -0.9612   36.8357 C   0  0  0  0  0  0  0  0  0  0  0  0
   -8.6270    0.1774   36.0230 C   0  0  0  0  0  0  0  0  0  0  0  0
   -7.5502   -0.1859   35.0378 C   0  0  0  0  0  0  0  0  0  0  0  0
   -6.4180    0.4525   34.7985 N   0  0  0  0  0  0  0  0  0  0  0  0
   -5.8683   -0.1919   33.6787 C   0  0  0  0  0  0  0  0  0  0  0  0
   -4.2785    0.2903   32.9417 S   0  0  0  0  0  0  0  0  0  0  0  0
   -4.4450    1.6773   32.5565 O   0  0  0  0  0  0  0  0  0  0  0  0
   -3.2989   -0.1149   33.9311 O   0  0  0  0  0  0  0  0  0  0  0  0
   -3.8284   -0.5801   31.4724 N   0  0  0  0  0  0  0  0  0  0  0  0
   -2.4002   -0.2787   30.9358 C   0  0  0  0  0  0  0  0  0  0  0  0
   -2.1986   -0.7257   29.4367 C   0  0  0  0  0  0  0  0  0  0  0  0
   -3.1078    0.0911   28.5093 C   0  0  0  0  0  0  0  0  0  0  0  0
   -0.7462   -0.7262   28.8575 C   0  0  0  0  0  0  0  0  0  0  0  0
   -0.1006   -1.7859   28.3859 N   0  0  0  0  0  0  0  0  0  0  0  0
    1.0956   -1.3371   27.8629 C   0  0  0  0  0  0  0  0  0  0  0  0
    1.1825    0.0254   27.9877 C   0  0  0  0  0  0  0  0  0  0  0  0
    0.0187    0.4028   28.6139 N   0  0  0  0  0  0  0  0  0  0  0  0
   -6.6188   -1.2313   33.2598 N   0  0  0  0  0  0  0  0  0  0  0  0
   -7.6667   -1.1843   34.1179 N   0  0  0  0  0  0  0  0  0  0  0  0
  -11.5843   -3.1947   36.1096 H   0  0  0  0  0  0  0  0  0  0  0  0
  -10.6993   -2.9781   37.6391 H   0  0  0  0  0  0  0  0  0  0  0  0
  -11.8381   -1.7163   37.0631 H   0  0  0  0  0  0  0  0  0  0  0  0
   -9.8926   -0.5088   37.6079 H   0  0  0  0  0  0  0  0  0  0  0  0
   -8.4793   -1.5434   37.3364 H   0  0  0  0  0  0  0  0  0  0  0  0
   -9.4134    0.7197   35.4868 H   0  0  0  0  0  0  0  0  0  0  0  0
   -8.1876    0.8904   36.7325 H   0  0  0  0  0  0  0  0  0  0  0  0
   -3.9483   -1.5777   31.6653 H   0  0  0  0  0  0  0  0  0  0  0  0
   -2.2119    0.7972   31.0218 H   0  0  0  0  0  0  0  0  0  0  0  0
   -1.6893   -0.8146   31.5743 H   0  0  0  0  0  0  0  0  0  0  0  0
   -2.5342   -1.7709   29.3751 H   0  0  0  0  0  0  0  0  0  0  0  0
   -4.1597   -0.0139   28.7937 H   0  0  0  0  0  0  0  0  0  0  0  0
   -3.0112   -0.2429   27.4699 H   0  0  0  0  0  0  0  0  0  0  0  0
   -2.8541    1.1565   28.5413 H   0  0  0  0  0  0  0  0  0  0  0  0
    1.8079   -2.0190   27.4142 H   0  0  0  0  0  0  0  0  0  0  0  0
    1.9418    0.7381   27.6996 H   0  0  0  0  0  0  0  0  0  0  0  0
   -0.2434    1.3491   28.8530 H   0  0  0  0  0  0  0  0  0  0  0  0
   -8.4391   -1.8334   34.0097 H   0  0  0  0  0  0  0  0  0  0  0  0
  1  2  1  0
  2  3  1  0
  3  4  1  0
  4  5  1  0
  5  6  2  0
  6  7  1  0
  7  8  1  0
  8  9  2  0
  8 10  2  0
  8 11  1  0
 11 12  1  0
 12 13  1  0
 13 14  1  0
 13 15  1  0
 15 16  2  0
 16 17  1  0
 17 18  2  0
 18 19  1  0
  7 20  2  0
 20 21  1  0
 21  5  1  0
 19 15  1  0
  1 22  1  0
  1 23  1  0
  1 24  1  0
  3 25  1  0
  3 26  1  0
  4 27  1  0
  4 28  1  0
 11 29  1  0
 12 30  1  0
 12 31  1  0
 13 32  1  0
 14 33  1  0
 14 34  1  0
 14 35  1  0
 17 36  1  0
 18 37  1  0
 19 38  1  0
 21 39  1  0
M  END
>  <Energy>  (137) 
103.80045436035678

>  <compound_id>  (137) 
32360

>  <target_id>  (137) 
1

>  <reference_id>  (137) 
7

>  <inspiration_ids>  (137) 
[7, 114]

>  <energy_score>  (137) 
-34.434231499564646

>  <distance_score>  (137) 
11.72085923145316

>  <path>  (137) 
/opt/xchem-fragalysis-2/maxwin/BulkDock/SCRATCH/511020/C32360-P7/C32360-P7.minimised.mol

>  <scratch_subdir>  (137) 
/opt/xchem-fragalysis-2/maxwin/BulkDock/SCRATCH/511020/C32360-P7

>  <fragmenstein_runtime>  (137) 
6.941995143890381

>  <fragmenstein_outcome>  (137) 
too moved

>  <fragmenstein_mode>  (137) 
expansion

>  <fragmenstein_error>  (137) 


$$$$
C32360-P114
     RDKit          3D

 39 40  0  0  0  0  0  0  0  0999 V2000
  -11.2500   -2.2365   37.1890 C   0  0  0  0  0  0  0  0  0  0  0  0
   -9.9376   -1.6810   37.1705 O   0  0  0  0  0  0  0  0  0  0  0  0
   -9.5367   -1.1841   35.8864 C   0  0  0  0  0  0  0  0  0  0  0  0
   -8.1349   -0.5841   36.0407 C   0  0  0  0  0  0  0  0  0  0  0  0
   -7.3240   -0.4412   34.7842 C   0  0  0  0  0  0  0  0  0  0  0  0
   -6.5743   -1.3433   34.1797 N   0  0  0  0  0  0  0  0  0  0  0  0
   -5.8861   -0.6299   33.1830 C   0  0  0  0  0  0  0  0  0  0  0  0
   -4.6614   -1.4048   32.0905 S   0  0  0  0  0  0  0  0  0  0  0  0
   -5.4627   -2.0743   31.0832 O   0  0  0  0  0  0  0  0  0  0  0  0
   -3.7829   -2.1370   32.9788 O   0  0  0  0  0  0  0  0  0  0  0  0
   -3.6370   -0.2921   31.1693 N   0  0  0  0  0  0  0  0  0  0  0  0
   -2.4823   -0.9879   30.3765 C   0  0  0  0  0  0  0  0  0  0  0  0
   -1.7417   -0.0187   29.3712 C   0  0  0  0  0  0  0  0  0  0  0  0
   -2.6898    0.3834   28.2312 C   0  0  0  0  0  0  0  0  0  0  0  0
   -0.4183   -0.5333   28.7265 C   0  0  0  0  0  0  0  0  0  0  0  0
   -0.0964   -1.7572   28.3425 N   0  0  0  0  0  0  0  0  0  0  0  0
    1.1790   -1.6833   27.8080 C   0  0  0  0  0  0  0  0  0  0  0  0
    1.6305   -0.3889   27.8091 C   0  0  0  0  0  0  0  0  0  0  0  0
    0.6160    0.3307   28.3821 N   0  0  0  0  0  0  0  0  0  0  0  0
   -6.2515    0.6688   33.1253 N   0  0  0  0  0  0  0  0  0  0  0  0
   -7.1255    0.7578   34.1527 N   0  0  0  0  0  0  0  0  0  0  0  0
  -11.3650   -2.9795   36.3971 H   0  0  0  0  0  0  0  0  0  0  0  0
  -11.9834   -1.4338   37.0828 H   0  0  0  0  0  0  0  0  0  0  0  0
  -11.4042   -2.7206   38.1568 H   0  0  0  0  0  0  0  0  0  0  0  0
   -9.5282   -2.0037   35.1676 H   0  0  0  0  0  0  0  0  0  0  0  0
  -10.2458   -0.4210   35.5476 H   0  0  0  0  0  0  0  0  0  0  0  0
   -7.5538   -1.1901   36.7457 H   0  0  0  0  0  0  0  0  0  0  0  0
   -8.2283    0.3933   36.5323 H   0  0  0  0  0  0  0  0  0  0  0  0
   -4.2807    0.1939   30.5427 H   0  0  0  0  0  0  0  0  0  0  0  0
   -2.9028   -1.8358   29.8243 H   0  0  0  0  0  0  0  0  0  0  0  0
   -1.7639   -1.3637   31.1132 H   0  0  0  0  0  0  0  0  0  0  0  0
   -1.4861    0.8903   29.9329 H   0  0  0  0  0  0  0  0  0  0  0  0
   -2.2022    1.0795   27.5389 H   0  0  0  0  0  0  0  0  0  0  0  0
   -3.5879    0.8790   28.6109 H   0  0  0  0  0  0  0  0  0  0  0  0
   -3.0026   -0.4924   27.6513 H   0  0  0  0  0  0  0  0  0  0  0  0
    1.6888   -2.5643   27.4400 H   0  0  0  0  0  0  0  0  0  0  0  0
    2.5507    0.0640   27.4691 H   0  0  0  0  0  0  0  0  0  0  0  0
    0.6214    1.3255   28.5573 H   0  0  0  0  0  0  0  0  0  0  0  0
   -7.5236    1.6623   34.3803 H   0  0  0  0  0  0  0  0  0  0  0  0
  1  2  1  0
  2  3  1  0
  3  4  1  0
  4  5  1  0
  5  6  2  0
  6  7  1  0
  7  8  1  0
  8  9  2  0
  8 10  2  0
  8 11  1  0
 11 12  1  0
 12 13  1  0
 13 14  1  0
 13 15  1  0
 15 16  2  0
 16 17  1  0
 17 18  2  0
 18 19  1  0
  7 20  2  0
 20 21  1  0
 21  5  1  0
 19 15  1  0
  1 22  1  0
  1 23  1  0
  1 24  1  0
  3 25  1  0
  3 26  1  0
  4 27  1  0
  4 28  1  0
 11 29  1  0
 12 30  1  0
 12 31  1  0
 13 32  1  0
 14 33  1  0
 14 34  1  0
 14 35  1  0
 17 36  1  0
 18 37  1  0
 19 38  1  0
 21 39  1  0
M  END
>  <Energy>  (138) 
109.56089064959212

>  <compound_id>  (138) 
32360

>  <target_id>  (138) 
1

>  <reference_id>  (138) 
114

>  <inspiration_ids>  (138) 
[7, 114]

>  <energy_score>  (138) 
-28.673795210330013

>  <distance_score>  (138) 
11.579508268634948

>  <path>  (138) 
/opt/xchem-fragalysis-2/maxwin/BulkDock/SCRATCH/511020/C32360-P114/C32360-P114.minimised.mol

>  <scratch_subdir>  (138) 
/opt/xchem-fragalysis-2/maxwin/BulkDock/SCRATCH/511020/C32360-P114

>  <fragmenstein_runtime>  (138) 
8.867461442947388

>  <fragmenstein_outcome>  (138) 
too moved

>  <fragmenstein_mode>  (138) 
expansion

>  <fragmenstein_error>  (138) 


$$$$
C32361-P7
     RDKit          3D

 48 49  0  0  0  0  0  0  0  0999 V2000
   -7.2280   -3.1204   28.5158 C   0  0  0  0  0  0  0  0  0  0  0  0
   -5.6768   -3.3650   28.6808 C   0  0  0  0  0  0  0  0  0  0  0  0
   -4.4912   -2.6228   28.0878 O   0  0  0  0  0  0  0  0  0  0  0  0
   -3.9432   -2.1097   26.7750 C   0  0  0  0  0  0  0  0  0  0  0  0
   -2.6259   -1.0667   26.5245 C   0  0  0  0  0  0  0  0  0  0  0  0
   -1.7976   -0.4288   24.7448 C   0  0  0  0  0  0  0  0  0  0  0  0
   -1.5995    1.0689   24.8403 O   0  0  0  0  0  0  0  0  0  0  0  0
   -1.2165   -1.7162   23.2112 N   0  0  0  0  0  0  0  0  0  0  0  0
   -0.0422   -1.5018   21.4000 C   0  0  0  0  0  0  0  0  0  0  0  0
    1.4478    0.1548   21.1086 C   0  0  0  0  0  0  0  0  0  0  0  0
    0.5530   -1.1114   19.3556 C   0  0  0  0  0  0  0  0  0  0  0  0
    0.7708   -2.0597   18.3047 N   0  0  0  0  0  0  0  0  0  0  0  0
    1.3687   -1.5973   17.1652 C   0  0  0  0  0  0  0  0  0  0  0  0
    1.4434   -0.2564   17.2285 C   0  0  0  0  0  0  0  0  0  0  0  0
    0.8120    0.0564   18.3965 N   0  0  0  0  0  0  0  0  0  0  0  0
   -2.4451   -0.0248   27.6196 N   0  0  0  0  0  0  0  0  0  0  0  0
   -2.1977   -0.2891   28.9652 C   0  0  0  0  0  0  0  0  0  0  0  0
   -2.4306    0.9105   29.6090 C   0  0  0  0  0  0  0  0  0  0  0  0
   -2.6815    1.2034   31.0523 C   0  0  0  0  0  0  0  0  0  0  0  0
   -1.6538    2.1688   31.6301 C   0  0  0  0  0  0  0  0  0  0  0  0
   -1.9099    2.3288   33.0289 O   0  0  0  0  0  0  0  0  0  0  0  0
   -0.9957    3.2426   33.6219 C   0  0  0  0  0  0  0  0  0  0  0  0
   -2.5611    1.8840   28.6475 N   0  0  0  0  0  0  0  0  0  0  0  0
   -2.5553    1.3031   27.4431 N   0  0  0  0  0  0  0  0  0  0  0  0
   -7.5585   -2.5012   27.6855 H   0  0  0  0  0  0  0  0  0  0  0  0
   -7.7402   -4.0855   28.4098 H   0  0  0  0  0  0  0  0  0  0  0  0
   -7.6574   -2.7249   29.4351 H   0  0  0  0  0  0  0  0  0  0  0  0
   -5.4910   -3.3184   29.7661 H   0  0  0  0  0  0  0  0  0  0  0  0
   -5.6010   -4.4272   28.5933 H   0  0  0  0  0  0  0  0  0  0  0  0
   -3.4423   -2.7899   26.1213 H   0  0  0  0  0  0  0  0  0  0  0  0
   -4.7886   -2.0206   26.1221 H   0  0  0  0  0  0  0  0  0  0  0  0
   -1.8285   -1.6749   27.0199 H   0  0  0  0  0  0  0  0  0  0  0  0
   -1.5608   -2.6327   23.3985 H   0  0  0  0  0  0  0  0  0  0  0  0
    0.3943   -2.5651   21.7240 H   0  0  0  0  0  0  0  0  0  0  0  0
    2.2828    0.8399   21.6317 H   0  0  0  0  0  0  0  0  0  0  0  0
    1.2524    1.4058   21.4459 H   0  0  0  0  0  0  0  0  0  0  0  0
    1.8534   -0.0229   20.1414 H   0  0  0  0  0  0  0  0  0  0  0  0
    1.6893   -2.2694   16.3832 H   0  0  0  0  0  0  0  0  0  0  0  0
    1.8408    0.4991   16.5703 H   0  0  0  0  0  0  0  0  0  0  0  0
    0.7872    0.9927   18.7659 H   0  0  0  0  0  0  0  0  0  0  0  0
   -2.0553   -1.2987   29.3230 H   0  0  0  0  0  0  0  0  0  0  0  0
   -3.6880    1.6226   31.1714 H   0  0  0  0  0  0  0  0  0  0  0  0
   -2.6761    0.2711   31.6306 H   0  0  0  0  0  0  0  0  0  0  0  0
   -0.6395    1.7752   31.4914 H   0  0  0  0  0  0  0  0  0  0  0  0
   -1.7216    3.1430   31.1309 H   0  0  0  0  0  0  0  0  0  0  0  0
   -1.0920    4.2320   33.1645 H   0  0  0  0  0  0  0  0  0  0  0  0
    0.0308    2.8777   33.5203 H   0  0  0  0  0  0  0  0  0  0  0  0
   -1.2334    3.3252   34.6858 H   0  0  0  0  0  0  0  0  0  0  0  0
  1  2  1  0
  2  3  1  0
  3  4  1  0
  4  5  1  0
  5  6  1  0
  6  7  2  0
  6  8  1  0
  8  9  1  0
  9 10  1  0
  9 11  1  0
 11 12  2  0
 12 13  1  0
 13 14  2  0
 14 15  1  0
  5 16  1  0
 16 17  1  0
 17 18  2  0
 18 19  1  0
 19 20  1  0
 20 21  1  0
 21 22  1  0
 18 23  1  0
 23 24  2  0
 15 11  1  0
 24 16  1  0
  1 25  1  0
  1 26  1  0
  1 27  1  0
  2 28  1  0
  2 29  1  0
  4 30  1  0
  4 31  1  0
  5 32  1  0
  8 33  1  0
  9 34  1  0
 10 35  1  0
 10 36  1  0
 10 37  1  0
 13 38  1  0
 14 39  1  0
 15 40  1  0
 17 41  1  0
 19 42  1  0
 19 43  1  0
 20 44  1  0
 20 45  1  0
 22 46  1  0
 22 47  1  0
 22 48  1  0
M  END
>  <Energy>  (139) 
1111.9457491907569

>  <compound_id>  (139) 
32361

>  <target_id>  (139) 
1

>  <reference_id>  (139) 
7

>  <inspiration_ids>  (139) 
[7, 114]

>  <energy_score>  (139) 
1053.7681252428124

>  <distance_score>  (139) 
12.710880517452923

>  <path>  (139) 
/opt/xchem-fragalysis-2/maxwin/BulkDock/SCRATCH/511020/C32361-P7/C32361-P7.minimised.mol

>  <scratch_subdir>  (139) 
/opt/xchem-fragalysis-2/maxwin/BulkDock/SCRATCH/511020/C32361-P7

>  <fragmenstein_runtime>  (139) 
11.69316577911377

>  <fragmenstein_outcome>  (139) 
too moved

>  <fragmenstein_mode>  (139) 
expansion

>  <fragmenstein_error>  (139) 


$$$$
C32361-P114
     RDKit          3D

 48 49  0  0  0  0  0  0  0  0999 V2000
  -10.0992   -4.6092   27.6907 C   0  0  0  0  0  0  0  0  0  0  0  0
   -9.3559   -3.4352   28.2996 C   0  0  0  0  0  0  0  0  0  0  0  0
   -7.9411   -3.7354   28.3013 O   0  0  0  0  0  0  0  0  0  0  0  0
   -7.1447   -2.5857   27.9177 C   0  0  0  0  0  0  0  0  0  0  0  0
   -5.2805   -2.7565   27.9416 C   0  0  0  0  0  0  0  0  0  0  0  0
   -3.7423   -2.0588   26.7357 C   0  0  0  0  0  0  0  0  0  0  0  0
   -2.8618   -1.5962   27.4331 O   0  0  0  0  0  0  0  0  0  0  0  0
   -3.5064   -2.1496   24.8398 N   0  0  0  0  0  0  0  0  0  0  0  0
   -2.0864   -1.4946   23.6705 C   0  0  0  0  0  0  0  0  0  0  0  0
   -1.9295   -0.1514   25.3198 C   0  0  0  0  0  0  0  0  0  0  0  0
   -0.5116   -2.4142   22.7548 C   0  0  0  0  0  0  0  0  0  0  0  0
    0.8073   -2.1810   22.7889 N   0  0  0  0  0  0  0  0  0  0  0  0
    1.8404   -3.2976   22.7340 C   0  0  0  0  0  0  0  0  0  0  0  0
    1.2323   -4.2487   22.0659 C   0  0  0  0  0  0  0  0  0  0  0  0
    0.5045   -3.1960   21.5196 N   0  0  0  0  0  0  0  0  0  0  0  0
   -5.4356   -3.0011   29.8348 N   0  0  0  0  0  0  0  0  0  0  0  0
   -6.6142   -2.7088   30.6865 C   0  0  0  0  0  0  0  0  0  0  0  0
   -6.1761   -2.1463   31.8830 C   0  0  0  0  0  0  0  0  0  0  0  0
   -6.8989   -1.3164   32.8977 C   0  0  0  0  0  0  0  0  0  0  0  0
   -6.0705   -1.0081   34.1417 C   0  0  0  0  0  0  0  0  0  0  0  0
   -6.9024   -0.3352   35.0938 O   0  0  0  0  0  0  0  0  0  0  0  0
   -6.1405    0.1579   36.1896 C   0  0  0  0  0  0  0  0  0  0  0  0
   -4.8447   -2.3326   31.9794 N   0  0  0  0  0  0  0  0  0  0  0  0
   -4.3738   -2.6954   30.7994 N   0  0  0  0  0  0  0  0  0  0  0  0
  -11.1791   -4.4376   27.7111 H   0  0  0  0  0  0  0  0  0  0  0  0
   -9.8791   -5.5418   28.2171 H   0  0  0  0  0  0  0  0  0  0  0  0
   -9.7877   -4.7564   26.6511 H   0  0  0  0  0  0  0  0  0  0  0  0
   -9.6873   -3.2423   29.3205 H   0  0  0  0  0  0  0  0  0  0  0  0
   -9.5683   -2.5390   27.7048 H   0  0  0  0  0  0  0  0  0  0  0  0
   -7.4769   -1.7388   28.5320 H   0  0  0  0  0  0  0  0  0  0  0  0
   -7.5106   -2.2706   26.9360 H   0  0  0  0  0  0  0  0  0  0  0  0
   -5.1244   -3.7841   28.0271 H   0  0  0  0  0  0  0  0  0  0  0  0
   -4.3308   -2.4617   24.4298 H   0  0  0  0  0  0  0  0  0  0  0  0
   -2.7071   -1.4176   22.7668 H   0  0  0  0  0  0  0  0  0  0  0  0
   -1.7381    0.9577   25.2958 H   0  0  0  0  0  0  0  0  0  0  0  0
   -1.2955   -0.4361   26.1967 H   0  0  0  0  0  0  0  0  0  0  0  0
   -2.9291   -0.0876   25.7757 H   0  0  0  0  0  0  0  0  0  0  0  0
    2.7948   -3.0869   23.1948 H   0  0  0  0  0  0  0  0  0  0  0  0
    1.3854   -5.1861   21.5793 H   0  0  0  0  0  0  0  0  0  0  0  0
    0.2076   -3.4150   20.5947 H   0  0  0  0  0  0  0  0  0  0  0  0
   -7.6068   -2.7205   30.2843 H   0  0  0  0  0  0  0  0  0  0  0  0
   -7.1662   -0.3625   32.4273 H   0  0  0  0  0  0  0  0  0  0  0  0
   -7.8425   -1.7738   33.1870 H   0  0  0  0  0  0  0  0  0  0  0  0
   -5.6895   -1.9307   34.5935 H   0  0  0  0  0  0  0  0  0  0  0  0
   -5.2183   -0.3699   33.8771 H   0  0  0  0  0  0  0  0  0  0  0  0
   -5.6055   -0.6564   36.6868 H   0  0  0  0  0  0  0  0  0  0  0  0
   -6.8269    0.6158   36.9067 H   0  0  0  0  0  0  0  0  0  0  0  0
   -5.4331    0.9199   35.8486 H   0  0  0  0  0  0  0  0  0  0  0  0
  1  2  1  0
  2  3  1  0
  3  4  1  0
  4  5  1  0
  5  6  1  0
  6  7  2  0
  6  8  1  0
  8  9  1  0
  9 10  1  0
  9 11  1  0
 11 12  2  0
 12 13  1  0
 13 14  2  0
 14 15  1  0
  5 16  1  0
 16 17  1  0
 17 18  2  0
 18 19  1  0
 19 20  1  0
 20 21  1  0
 21 22  1  0
 18 23  1  0
 23 24  2  0
 15 11  1  0
 24 16  1  0
  1 25  1  0
  1 26  1  0
  1 27  1  0
  2 28  1  0
  2 29  1  0
  4 30  1  0
  4 31  1  0
  5 32  1  0
  8 33  1  0
  9 34  1  0
 10 35  1  0
 10 36  1  0
 10 37  1  0
 13 38  1  0
 14 39  1  0
 15 40  1  0
 17 41  1  0
 19 42  1  0
 19 43  1  0
 20 44  1  0
 20 45  1  0
 22 46  1  0
 22 47  1  0
 22 48  1  0
M  END
>  <Energy>  (140) 
833.67173835170342

>  <compound_id>  (140) 
32361

>  <target_id>  (140) 
1

>  <reference_id>  (140) 
114

>  <inspiration_ids>  (140) 
[7, 114]

>  <energy_score>  (140) 
775.494114403758

>  <distance_score>  (140) 
11.476242733899008

>  <path>  (140) 
/opt/xchem-fragalysis-2/maxwin/BulkDock/SCRATCH/511020/C32361-P114/C32361-P114.minimised.mol

>  <scratch_subdir>  (140) 
/opt/xchem-fragalysis-2/maxwin/BulkDock/SCRATCH/511020/C32361-P114

>  <fragmenstein_runtime>  (140) 
10.745828628540039

>  <fragmenstein_outcome>  (140) 
too moved

>  <fragmenstein_mode>  (140) 
expansion

>  <fragmenstein_error>  (140) 


$$$$
C32362-P7
     RDKit          3D

 41 42  0  0  0  0  0  0  0  0999 V2000
  -15.6190   -4.1076   27.8775 C   0  0  0  0  0  0  0  0  0  0  0  0
  -14.3150   -3.9104   28.4074 O   0  0  0  0  0  0  0  0  0  0  0  0
  -13.9448   -2.5292   28.4041 C   0  0  0  0  0  0  0  0  0  0  0  0
  -12.5457   -2.3691   29.0161 C   0  0  0  0  0  0  0  0  0  0  0  0
  -11.4674   -2.6937   28.0446 C   0  0  0  0  0  0  0  0  0  0  0  0
  -11.3043   -2.2416   26.7571 C   0  0  0  0  0  0  0  0  0  0  0  0
  -10.2017   -2.9035   26.2964 N   0  0  0  0  0  0  0  0  0  0  0  0
   -9.5859   -2.7250   24.9958 C   0  0  0  0  0  0  0  0  0  0  0  0
   -9.3898   -3.9700   24.0925 C   0  0  0  0  0  0  0  0  0  0  0  0
   -9.1672   -3.6022   22.5999 C   0  0  0  0  0  0  0  0  0  0  0  0
   -9.9184   -2.7834   22.1306 O   0  0  0  0  0  0  0  0  0  0  0  0
   -8.1280   -4.3897   21.9739 N   0  0  0  0  0  0  0  0  0  0  0  0
   -8.6879   -5.6970   21.4937 C   0  0  0  0  0  0  0  0  0  0  0  0
   -7.5688   -4.3552   20.5350 C   0  0  0  0  0  0  0  0  0  0  0  0
   -6.2083   -4.9541   20.1407 C   0  0  0  0  0  0  0  0  0  0  0  0
   -5.5145   -5.9306   20.6948 N   0  0  0  0  0  0  0  0  0  0  0  0
   -4.5924   -6.3308   19.7557 C   0  0  0  0  0  0  0  0  0  0  0  0
   -4.6598   -5.5383   18.6366 C   0  0  0  0  0  0  0  0  0  0  0  0
   -5.6077   -4.6012   18.9374 N   0  0  0  0  0  0  0  0  0  0  0  0
   -9.6455   -3.6424   27.2736 N   0  0  0  0  0  0  0  0  0  0  0  0
  -10.4288   -3.5402   28.3457 N   0  0  0  0  0  0  0  0  0  0  0  0
  -16.3620   -3.5743   28.4783 H   0  0  0  0  0  0  0  0  0  0  0  0
  -15.8452   -5.1767   27.9110 H   0  0  0  0  0  0  0  0  0  0  0  0
  -15.6636   -3.7726   26.8369 H   0  0  0  0  0  0  0  0  0  0  0  0
  -13.9913   -2.1389   27.3810 H   0  0  0  0  0  0  0  0  0  0  0  0
  -14.6729   -1.9689   29.0005 H   0  0  0  0  0  0  0  0  0  0  0  0
  -12.4180   -1.3328   29.3330 H   0  0  0  0  0  0  0  0  0  0  0  0
  -12.4256   -3.0235   29.8849 H   0  0  0  0  0  0  0  0  0  0  0  0
  -11.8718   -1.5607   26.1408 H   0  0  0  0  0  0  0  0  0  0  0  0
   -8.6320   -2.2149   25.1611 H   0  0  0  0  0  0  0  0  0  0  0  0
  -10.2118   -1.9962   24.4656 H   0  0  0  0  0  0  0  0  0  0  0  0
  -10.2977   -4.5858   24.1255 H   0  0  0  0  0  0  0  0  0  0  0  0
   -8.5805   -4.6014   24.4433 H   0  0  0  0  0  0  0  0  0  0  0  0
   -9.1434   -6.1547   22.3849 H   0  0  0  0  0  0  0  0  0  0  0  0
   -7.9593   -6.4538   21.1776 H   0  0  0  0  0  0  0  0  0  0  0  0
   -9.5445   -5.5848   20.8112 H   0  0  0  0  0  0  0  0  0  0  0  0
   -7.4102   -3.2763   20.4371 H   0  0  0  0  0  0  0  0  0  0  0  0
   -8.3152   -4.4903   19.7308 H   0  0  0  0  0  0  0  0  0  0  0  0
   -3.9525   -7.1852   19.9355 H   0  0  0  0  0  0  0  0  0  0  0  0
   -4.1341   -5.5502   17.6914 H   0  0  0  0  0  0  0  0  0  0  0  0
   -5.9364   -3.8799   18.3119 H   0  0  0  0  0  0  0  0  0  0  0  0
  1  2  1  0
  2  3  1  0
  3  4  1  0
  4  5  1  0
  5  6  2  0
  6  7  1  0
  7  8  1  0
  8  9  1  0
  9 10  1  0
 10 11  2  0
 10 12  1  0
 12 13  1  0
 12 14  1  0
 14 15  1  0
 15 16  2  0
 16 17  1  0
 17 18  2  0
 18 19  1  0
  7 20  1  0
 20 21  2  0
 21  5  1  0
 19 15  1  0
  1 22  1  0
  1 23  1  0
  1 24  1  0
  3 25  1  0
  3 26  1  0
  4 27  1  0
  4 28  1  0
  6 29  1  0
  8 30  1  0
  8 31  1  0
  9 32  1  0
  9 33  1  0
 13 34  1  0
 13 35  1  0
 13 36  1  0
 14 37  1  0
 14 38  1  0
 17 39  1  0
 18 40  1  0
 19 41  1  0
M  END
>  <Energy>  (141) 
71.787964214228765

>  <compound_id>  (141) 
32362

>  <target_id>  (141) 
1

>  <reference_id>  (141) 
7

>  <inspiration_ids>  (141) 
[7, 114]

>  <energy_score>  (141) 
66.86974547239737

>  <distance_score>  (141) 
14.944213243464446

>  <path>  (141) 
/opt/xchem-fragalysis-2/maxwin/BulkDock/SCRATCH/511020/C32362-P7/C32362-P7.minimised.mol

>  <scratch_subdir>  (141) 
/opt/xchem-fragalysis-2/maxwin/BulkDock/SCRATCH/511020/C32362-P7

>  <fragmenstein_runtime>  (141) 
11.095151424407959

>  <fragmenstein_outcome>  (141) 
too moved

>  <fragmenstein_mode>  (141) 
expansion

>  <fragmenstein_error>  (141) 


$$$$
C32362-P114
     RDKit          3D

 41 42  0  0  0  0  0  0  0  0999 V2000
  -10.8999  -11.6323   30.8291 C   0  0  0  0  0  0  0  0  0  0  0  0
  -10.7201  -10.2747   30.4456 O   0  0  0  0  0  0  0  0  0  0  0  0
   -9.5334   -9.7191   31.0230 C   0  0  0  0  0  0  0  0  0  0  0  0
   -9.4556   -8.2280   30.6929 C   0  0  0  0  0  0  0  0  0  0  0  0
   -9.0334   -7.9653   29.2796 C   0  0  0  0  0  0  0  0  0  0  0  0
   -9.6758   -8.2659   28.0971 C   0  0  0  0  0  0  0  0  0  0  0  0
   -8.7819   -7.9275   27.1147 N   0  0  0  0  0  0  0  0  0  0  0  0
   -8.8590   -8.2769   25.6913 C   0  0  0  0  0  0  0  0  0  0  0  0
   -7.5137   -8.2724   24.9061 C   0  0  0  0  0  0  0  0  0  0  0  0
   -7.3152   -9.1593   23.6257 C   0  0  0  0  0  0  0  0  0  0  0  0
   -8.1474   -9.9919   23.3699 O   0  0  0  0  0  0  0  0  0  0  0  0
   -6.0252   -8.8646   22.9739 N   0  0  0  0  0  0  0  0  0  0  0  0
   -6.2138   -7.8387   21.8957 C   0  0  0  0  0  0  0  0  0  0  0  0
   -5.2728   -9.6092   21.8207 C   0  0  0  0  0  0  0  0  0  0  0  0
   -3.8104   -9.2677   21.3752 C   0  0  0  0  0  0  0  0  0  0  0  0
   -3.3609   -9.3033   20.1244 N   0  0  0  0  0  0  0  0  0  0  0  0
   -1.9842   -9.3450   20.1913 C   0  0  0  0  0  0  0  0  0  0  0  0
   -1.5696   -9.2213   21.4917 C   0  0  0  0  0  0  0  0  0  0  0  0
   -2.7296   -9.1147   22.2217 N   0  0  0  0  0  0  0  0  0  0  0  0
   -7.7060   -7.3078   27.6522 N   0  0  0  0  0  0  0  0  0  0  0  0
   -7.8313   -7.3649   28.9759 N   0  0  0  0  0  0  0  0  0  0  0  0
  -11.8081  -12.0072   30.3500 H   0  0  0  0  0  0  0  0  0  0  0  0
  -11.0198  -11.7106   31.9140 H   0  0  0  0  0  0  0  0  0  0  0  0
  -10.0522  -12.2394   30.4973 H   0  0  0  0  0  0  0  0  0  0  0  0
   -9.5860   -9.8371   32.1120 H   0  0  0  0  0  0  0  0  0  0  0  0
   -8.6542  -10.2567   30.6490 H   0  0  0  0  0  0  0  0  0  0  0  0
  -10.4403   -7.7848   30.8525 H   0  0  0  0  0  0  0  0  0  0  0  0
   -8.7302   -7.7759   31.3753 H   0  0  0  0  0  0  0  0  0  0  0  0
  -10.6148   -8.7587   27.8880 H   0  0  0  0  0  0  0  0  0  0  0  0
   -9.5571   -7.5653   25.2371 H   0  0  0  0  0  0  0  0  0  0  0  0
   -9.3127   -9.2733   25.6456 H   0  0  0  0  0  0  0  0  0  0  0  0
   -7.2570   -7.2397   24.6613 H   0  0  0  0  0  0  0  0  0  0  0  0
   -6.7913   -8.6824   25.6133 H   0  0  0  0  0  0  0  0  0  0  0  0
   -6.8349   -8.1623   21.0463 H   0  0  0  0  0  0  0  0  0  0  0  0
   -6.8426   -7.0566   22.3404 H   0  0  0  0  0  0  0  0  0  0  0  0
   -5.2942   -7.3125   21.6120 H   0  0  0  0  0  0  0  0  0  0  0  0
   -5.9151   -9.8746   20.9641 H   0  0  0  0  0  0  0  0  0  0  0  0
   -5.1453  -10.6001   22.2885 H   0  0  0  0  0  0  0  0  0  0  0  0
   -1.3794   -9.4372   19.2982 H   0  0  0  0  0  0  0  0  0  0  0  0
   -0.5947   -9.1798   21.9554 H   0  0  0  0  0  0  0  0  0  0  0  0
   -2.7925   -8.9607   23.2229 H   0  0  0  0  0  0  0  0  0  0  0  0
  1  2  1  0
  2  3  1  0
  3  4  1  0
  4  5  1  0
  5  6  2  0
  6  7  1  0
  7  8  1  0
  8  9  1  0
  9 10  1  0
 10 11  2  0
 10 12  1  0
 12 13  1  0
 12 14  1  0
 14 15  1  0
 15 16  2  0
 16 17  1  0
 17 18  2  0
 18 19  1  0
  7 20  1  0
 20 21  2  0
 21  5  1  0
 19 15  1  0
  1 22  1  0
  1 23  1  0
  1 24  1  0
  3 25  1  0
  3 26  1  0
  4 27  1  0
  4 28  1  0
  6 29  1  0
  8 30  1  0
  8 31  1  0
  9 32  1  0
  9 33  1  0
 13 34  1  0
 13 35  1  0
 13 36  1  0
 14 37  1  0
 14 38  1  0
 17 39  1  0
 18 40  1  0
 19 41  1  0
M  END
>  <Energy>  (142) 
71.936552588356975

>  <compound_id>  (142) 
32362

>  <target_id>  (142) 
1

>  <reference_id>  (142) 
114

>  <inspiration_ids>  (142) 
[7, 114]

>  <energy_score>  (142) 
67.01833384652716

>  <distance_score>  (142) 
15.14345402395941

>  <path>  (142) 
/opt/xchem-fragalysis-2/maxwin/BulkDock/SCRATCH/511020/C32362-P114/C32362-P114.minimised.mol

>  <scratch_subdir>  (142) 
/opt/xchem-fragalysis-2/maxwin/BulkDock/SCRATCH/511020/C32362-P114

>  <fragmenstein_runtime>  (142) 
11.984233617782593

>  <fragmenstein_outcome>  (142) 
too moved

>  <fragmenstein_mode>  (142) 
expansion

>  <fragmenstein_error>  (142) 


$$$$
C32363-P7
     RDKit          3D

 44 45  0  0  0  0  0  0  0  0999 V2000
    0.7649   -3.8843   28.7862 C   0  0  0  0  0  0  0  0  0  0  0  0
    1.7616   -2.9649   29.4805 C   0  0  0  0  0  0  0  0  0  0  0  0
    1.5150   -1.4572   29.2543 C   0  0  0  0  0  0  0  0  0  0  0  0
    0.1144   -1.1004   29.6227 N   0  0  0  0  0  0  0  0  0  0  0  0
   -0.7359   -1.5688   30.7168 C   0  0  0  0  0  0  0  0  0  0  0  0
   -0.5464   -2.4178   31.5461 O   0  0  0  0  0  0  0  0  0  0  0  0
   -2.1276   -0.8476   30.8271 C   0  0  0  0  0  0  0  0  0  0  0  0
   -3.0183   -1.5522   31.9303 C   0  0  0  0  0  0  0  0  0  0  0  0
   -4.2570   -0.9474   32.3993 N   0  0  0  0  0  0  0  0  0  0  0  0
   -4.3852    0.0349   33.3477 C   0  0  0  0  0  0  0  0  0  0  0  0
   -5.6920   -0.0536   33.7860 C   0  0  0  0  0  0  0  0  0  0  0  0
   -6.3688    0.7370   34.8523 C   0  0  0  0  0  0  0  0  0  0  0  0
   -7.8788    0.8207   34.7170 C   0  0  0  0  0  0  0  0  0  0  0  0
   -8.3198    2.0154   35.3785 O   0  0  0  0  0  0  0  0  0  0  0  0
   -9.7302    2.1725   35.2816 C   0  0  0  0  0  0  0  0  0  0  0  0
   -6.3126   -1.0639   33.1010 N   0  0  0  0  0  0  0  0  0  0  0  0
   -5.4316   -1.6050   32.2625 N   0  0  0  0  0  0  0  0  0  0  0  0
    2.1496   -0.9108   27.9481 C   0  0  0  0  0  0  0  0  0  0  0  0
    2.5707    0.3341   27.7481 N   0  0  0  0  0  0  0  0  0  0  0  0
    3.4404    0.2996   26.6727 C   0  0  0  0  0  0  0  0  0  0  0  0
    3.5361   -0.9705   26.1745 C   0  0  0  0  0  0  0  0  0  0  0  0
    2.6579   -1.7056   26.9266 N   0  0  0  0  0  0  0  0  0  0  0  0
   -0.2710   -3.5498   28.8783 H   0  0  0  0  0  0  0  0  0  0  0  0
    0.8147   -4.8808   29.2346 H   0  0  0  0  0  0  0  0  0  0  0  0
    0.9937   -3.9780   27.7257 H   0  0  0  0  0  0  0  0  0  0  0  0
    1.6976   -3.1669   30.5574 H   0  0  0  0  0  0  0  0  0  0  0  0
    2.7828   -3.2442   29.1961 H   0  0  0  0  0  0  0  0  0  0  0  0
    2.1001   -0.9558   30.0399 H   0  0  0  0  0  0  0  0  0  0  0  0
   -0.3319   -0.3108   29.1708 H   0  0  0  0  0  0  0  0  0  0  0  0
   -2.6350   -0.8874   29.8582 H   0  0  0  0  0  0  0  0  0  0  0  0
   -1.9523    0.1978   31.1004 H   0  0  0  0  0  0  0  0  0  0  0  0
   -3.2668   -2.5619   31.5788 H   0  0  0  0  0  0  0  0  0  0  0  0
   -2.4196   -1.6855   32.8414 H   0  0  0  0  0  0  0  0  0  0  0  0
   -3.5545    0.6530   33.6542 H   0  0  0  0  0  0  0  0  0  0  0  0
   -6.1177    0.3102   35.8313 H   0  0  0  0  0  0  0  0  0  0  0  0
   -5.9439    1.7495   34.8556 H   0  0  0  0  0  0  0  0  0  0  0  0
   -8.3458   -0.0548   35.1829 H   0  0  0  0  0  0  0  0  0  0  0  0
   -8.1776    0.8637   33.6654 H   0  0  0  0  0  0  0  0  0  0  0  0
  -10.2427    1.3316   35.7583 H   0  0  0  0  0  0  0  0  0  0  0  0
  -10.0095    3.0923   35.8023 H   0  0  0  0  0  0  0  0  0  0  0  0
  -10.0357    2.2591   34.2357 H   0  0  0  0  0  0  0  0  0  0  0  0
    3.9393    1.1919   26.3187 H   0  0  0  0  0  0  0  0  0  0  0  0
    4.0795   -1.3984   25.3427 H   0  0  0  0  0  0  0  0  0  0  0  0
    2.4403   -2.6753   26.7556 H   0  0  0  0  0  0  0  0  0  0  0  0
  1  2  1  0
  2  3  1  0
  3  4  1  0
  4  5  1  0
  5  6  2  0
  5  7  1  0
  7  8  1  0
  8  9  1  0
  9 10  1  0
 10 11  2  0
 11 12  1  0
 12 13  1  0
 13 14  1  0
 14 15  1  0
 11 16  1  0
 16 17  2  0
  3 18  1  0
 18 19  2  0
 19 20  1  0
 20 21  2  0
 21 22  1  0
 17  9  1  0
 22 18  1  0
  1 23  1  0
  1 24  1  0
  1 25  1  0
  2 26  1  0
  2 27  1  0
  3 28  1  0
  4 29  1  0
  7 30  1  0
  7 31  1  0
  8 32  1  0
  8 33  1  0
 10 34  1  0
 12 35  1  0
 12 36  1  0
 13 37  1  0
 13 38  1  0
 15 39  1  0
 15 40  1  0
 15 41  1  0
 20 42  1  0
 21 43  1  0
 22 44  1  0
M  END
>  <Energy>  (143) 
4.9536657648360851

>  <compound_id>  (143) 
32363

>  <target_id>  (143) 
1

>  <reference_id>  (143) 
7

>  <inspiration_ids>  (143) 
[7, 114]

>  <energy_score>  (143) 
4.45277282170747

>  <distance_score>  (143) 
12.59522586734935

>  <path>  (143) 
/opt/xchem-fragalysis-2/maxwin/BulkDock/SCRATCH/511020/C32363-P7/C32363-P7.minimised.mol

>  <scratch_subdir>  (143) 
/opt/xchem-fragalysis-2/maxwin/BulkDock/SCRATCH/511020/C32363-P7

>  <fragmenstein_runtime>  (143) 
27.2286593914032

>  <fragmenstein_outcome>  (143) 
too moved

>  <fragmenstein_mode>  (143) 
expansion

>  <fragmenstein_error>  (143) 


$$$$
C32363-P114
     RDKit          3D

 44 45  0  0  0  0  0  0  0  0999 V2000
   -2.3007   -8.9543   23.4211 C   0  0  0  0  0  0  0  0  0  0  0  0
   -2.0289   -8.5674   25.3833 C   0  0  0  0  0  0  0  0  0  0  0  0
   -2.7455   -7.2130   26.4791 C   0  0  0  0  0  0  0  0  0  0  0  0
   -4.0120   -7.4420   27.9310 N   0  0  0  0  0  0  0  0  0  0  0  0
   -5.7460   -7.6995   27.9341 C   0  0  0  0  0  0  0  0  0  0  0  0
   -6.5138   -7.8710   27.0092 O   0  0  0  0  0  0  0  0  0  0  0  0
   -6.5603   -7.5931   29.3052 C   0  0  0  0  0  0  0  0  0  0  0  0
   -6.4131   -8.4081   30.5557 C   0  0  0  0  0  0  0  0  0  0  0  0
   -6.7429   -7.9523   31.8708 N   0  0  0  0  0  0  0  0  0  0  0  0
   -5.8138   -7.8074   32.8555 C   0  0  0  0  0  0  0  0  0  0  0  0
   -6.4499   -7.0160   33.7630 C   0  0  0  0  0  0  0  0  0  0  0  0
   -5.8547   -6.2958   34.9011 C   0  0  0  0  0  0  0  0  0  0  0  0
   -4.4725   -5.6985   34.5714 C   0  0  0  0  0  0  0  0  0  0  0  0
   -3.6433   -5.6562   35.7347 O   0  0  0  0  0  0  0  0  0  0  0  0
   -2.3930   -5.0320   35.4794 C   0  0  0  0  0  0  0  0  0  0  0  0
   -7.7876   -7.0174   33.4539 N   0  0  0  0  0  0  0  0  0  0  0  0
   -7.9607   -7.6722   32.3074 N   0  0  0  0  0  0  0  0  0  0  0  0
   -1.5986   -6.2959   25.8147 C   0  0  0  0  0  0  0  0  0  0  0  0
   -0.3218   -6.0500   26.0045 N   0  0  0  0  0  0  0  0  0  0  0  0
    0.1676   -6.2650   24.6926 C   0  0  0  0  0  0  0  0  0  0  0  0
   -0.5229   -7.1700   24.0739 C   0  0  0  0  0  0  0  0  0  0  0  0
   -1.6092   -6.3724   24.4131 N   0  0  0  0  0  0  0  0  0  0  0  0
   -2.4101   -8.0863   22.7575 H   0  0  0  0  0  0  0  0  0  0  0  0
   -3.2389   -9.4971   23.2969 H   0  0  0  0  0  0  0  0  0  0  0  0
   -1.5299   -9.4563   22.8016 H   0  0  0  0  0  0  0  0  0  0  0  0
   -2.4206   -9.4082   25.7992 H   0  0  0  0  0  0  0  0  0  0  0  0
   -0.9878   -8.4415   25.7279 H   0  0  0  0  0  0  0  0  0  0  0  0
   -2.0366   -7.0464   27.3446 H   0  0  0  0  0  0  0  0  0  0  0  0
   -3.6821   -7.2492   28.8744 H   0  0  0  0  0  0  0  0  0  0  0  0
   -7.6009   -7.7995   28.9994 H   0  0  0  0  0  0  0  0  0  0  0  0
   -6.6262   -6.5251   29.5060 H   0  0  0  0  0  0  0  0  0  0  0  0
   -5.3491   -8.3800   30.6636 H   0  0  0  0  0  0  0  0  0  0  0  0
   -6.7991   -9.4251   30.4425 H   0  0  0  0  0  0  0  0  0  0  0  0
   -4.7891   -8.1351   32.7680 H   0  0  0  0  0  0  0  0  0  0  0  0
   -6.5352   -5.4911   35.1533 H   0  0  0  0  0  0  0  0  0  0  0  0
   -5.7679   -6.9750   35.7535 H   0  0  0  0  0  0  0  0  0  0  0  0
   -4.6001   -4.6863   34.1676 H   0  0  0  0  0  0  0  0  0  0  0  0
   -3.9352   -6.2924   33.8270 H   0  0  0  0  0  0  0  0  0  0  0  0
   -1.8100   -5.0370   36.4042 H   0  0  0  0  0  0  0  0  0  0  0  0
   -1.8389   -5.5826   34.7132 H   0  0  0  0  0  0  0  0  0  0  0  0
   -2.5410   -3.9945   35.1651 H   0  0  0  0  0  0  0  0  0  0  0  0
    1.0774   -6.0252   24.1432 H   0  0  0  0  0  0  0  0  0  0  0  0
   -0.3041   -7.7641   23.1923 H   0  0  0  0  0  0  0  0  0  0  0  0
   -2.4780   -6.5435   23.9366 H   0  0  0  0  0  0  0  0  0  0  0  0
  1  2  1  0
  2  3  1  0
  3  4  1  0
  4  5  1  0
  5  6  2  0
  5  7  1  0
  7  8  1  0
  8  9  1  0
  9 10  1  0
 10 11  2  0
 11 12  1  0
 12 13  1  0
 13 14  1  0
 14 15  1  0
 11 16  1  0
 16 17  2  0
  3 18  1  0
 18 19  2  0
 19 20  1  0
 20 21  2  0
 21 22  1  0
 17  9  1  0
 22 18  1  0
  1 23  1  0
  1 24  1  0
  1 25  1  0
  2 26  1  0
  2 27  1  0
  3 28  1  0
  4 29  1  0
  7 30  1  0
  7 31  1  0
  8 32  1  0
  8 33  1  0
 10 34  1  0
 12 35  1  0
 12 36  1  0
 13 37  1  0
 13 38  1  0
 15 39  1  0
 15 40  1  0
 15 41  1  0
 20 42  1  0
 21 43  1  0
 22 44  1  0
M  END
>  <Energy>  (144) 
421.52961831163572

>  <compound_id>  (144) 
32363

>  <target_id>  (144) 
1

>  <reference_id>  (144) 
114

>  <inspiration_ids>  (144) 
[7, 114]

>  <energy_score>  (144) 
421.0287253685072

>  <distance_score>  (144) 
13.384793066865747

>  <path>  (144) 
/opt/xchem-fragalysis-2/maxwin/BulkDock/SCRATCH/511020/C32363-P114/C32363-P114.minimised.mol

>  <scratch_subdir>  (144) 
/opt/xchem-fragalysis-2/maxwin/BulkDock/SCRATCH/511020/C32363-P114

>  <fragmenstein_runtime>  (144) 
25.34913992881775

>  <fragmenstein_outcome>  (144) 
too moved

>  <fragmenstein_mode>  (144) 
expansion

>  <fragmenstein_error>  (144) 


$$$$
C32364-P7
     RDKit          3D

 45 46  0  0  0  0  0  0  0  0999 V2000
   -7.4872    2.7185   34.4062 C   0  0  0  0  0  0  0  0  0  0  0  0
   -7.9096    1.4190   33.7403 C   0  0  0  0  0  0  0  0  0  0  0  0
   -7.0264    0.9199   32.7272 O   0  0  0  0  0  0  0  0  0  0  0  0
   -5.6074    0.9922   32.9355 C   0  0  0  0  0  0  0  0  0  0  0  0
   -4.9438   -0.3497   33.2837 C   0  0  0  0  0  0  0  0  0  0  0  0
   -3.3425   -0.3210   33.2686 C   0  0  0  0  0  0  0  0  0  0  0  0
   -2.8275   -0.3578   34.3552 O   0  0  0  0  0  0  0  0  0  0  0  0
   -2.7358   -0.2972   31.9166 N   0  0  0  0  0  0  0  0  0  0  0  0
   -1.3145   -0.2127   31.4912 C   0  0  0  0  0  0  0  0  0  0  0  0
   -0.8900   -0.3487   30.0129 C   0  0  0  0  0  0  0  0  0  0  0  0
   -0.9568    0.5759   29.0631 N   0  0  0  0  0  0  0  0  0  0  0  0
   -0.1345    0.1593   28.0337 C   0  0  0  0  0  0  0  0  0  0  0  0
    0.4251   -1.0570   28.3233 C   0  0  0  0  0  0  0  0  0  0  0  0
   -0.0758   -1.3839   29.5585 N   0  0  0  0  0  0  0  0  0  0  0  0
   -5.5377   -0.7489   34.5970 N   0  0  0  0  0  0  0  0  0  0  0  0
   -5.5174   -0.0555   35.7900 C   0  0  0  0  0  0  0  0  0  0  0  0
   -6.6866   -0.4146   36.4314 C   0  0  0  0  0  0  0  0  0  0  0  0
   -7.3233    0.1343   37.6576 C   0  0  0  0  0  0  0  0  0  0  0  0
   -7.2097   -0.8139   38.8478 C   0  0  0  0  0  0  0  0  0  0  0  0
   -7.8367   -0.2565   40.0049 O   0  0  0  0  0  0  0  0  0  0  0  0
   -6.9609    0.5613   40.7699 C   0  0  0  0  0  0  0  0  0  0  0  0
   -7.3183   -1.3705   35.6856 N   0  0  0  0  0  0  0  0  0  0  0  0
   -6.5941   -1.5940   34.5954 N   0  0  0  0  0  0  0  0  0  0  0  0
   -7.1148    3.4362   33.6698 H   0  0  0  0  0  0  0  0  0  0  0  0
   -6.6900    2.5557   35.1366 H   0  0  0  0  0  0  0  0  0  0  0  0
   -8.3309    3.1617   34.9441 H   0  0  0  0  0  0  0  0  0  0  0  0
   -8.8577    1.6171   33.2385 H   0  0  0  0  0  0  0  0  0  0  0  0
   -8.1222    0.6493   34.4755 H   0  0  0  0  0  0  0  0  0  0  0  0
   -5.3267    1.7690   33.6525 H   0  0  0  0  0  0  0  0  0  0  0  0
   -5.1909    1.3413   31.9838 H   0  0  0  0  0  0  0  0  0  0  0  0
   -5.2594   -1.1417   32.5948 H   0  0  0  0  0  0  0  0  0  0  0  0
   -3.4657   -0.1823   31.2278 H   0  0  0  0  0  0  0  0  0  0  0  0
   -0.7772   -0.9574   32.0905 H   0  0  0  0  0  0  0  0  0  0  0  0
   -0.9648    0.7659   31.8420 H   0  0  0  0  0  0  0  0  0  0  0  0
    0.0067    0.7710   27.1544 H   0  0  0  0  0  0  0  0  0  0  0  0
    1.1092   -1.6978   27.7828 H   0  0  0  0  0  0  0  0  0  0  0  0
    0.1780   -2.2005   30.0959 H   0  0  0  0  0  0  0  0  0  0  0  0
   -4.7605    0.6844   36.0075 H   0  0  0  0  0  0  0  0  0  0  0  0
   -6.8727    1.1030   37.9029 H   0  0  0  0  0  0  0  0  0  0  0  0
   -8.3813    0.3468   37.4597 H   0  0  0  0  0  0  0  0  0  0  0  0
   -7.7380   -1.7465   38.6223 H   0  0  0  0  0  0  0  0  0  0  0  0
   -6.1673   -1.0823   39.0604 H   0  0  0  0  0  0  0  0  0  0  0  0
   -6.1174   -0.0276   41.1428 H   0  0  0  0  0  0  0  0  0  0  0  0
   -6.5980    1.4069   40.1794 H   0  0  0  0  0  0  0  0  0  0  0  0
   -7.5173    0.9504   41.6269 H   0  0  0  0  0  0  0  0  0  0  0  0
  1  2  1  0
  2  3  1  0
  3  4  1  0
  4  5  1  0
  5  6  1  0
  6  7  2  0
  6  8  1  0
  8  9  1  0
  9 10  1  0
 10 11  2  0
 11 12  1  0
 12 13  2  0
 13 14  1  0
  5 15  1  0
 15 16  1  0
 16 17  2  0
 17 18  1  0
 18 19  1  0
 19 20  1  0
 20 21  1  0
 17 22  1  0
 22 23  2  0
 14 10  1  0
 23 15  1  0
  1 24  1  0
  1 25  1  0
  1 26  1  0
  2 27  1  0
  2 28  1  0
  4 29  1  0
  4 30  1  0
  5 31  1  0
  8 32  1  0
  9 33  1  0
  9 34  1  0
 12 35  1  0
 13 36  1  0
 14 37  1  0
 16 38  1  0
 18 39  1  0
 18 40  1  0
 19 41  1  0
 19 42  1  0
 21 43  1  0
 21 44  1  0
 21 45  1  0
M  END
>  <Energy>  (145) 
51.986269286234901

>  <compound_id>  (145) 
32364

>  <target_id>  (145) 
1

>  <reference_id>  (145) 
7

>  <inspiration_ids>  (145) 
[7, 114]

>  <energy_score>  (145) 
-7.236505298546263

>  <distance_score>  (145) 
12.827943620117296

>  <path>  (145) 
/opt/xchem-fragalysis-2/maxwin/BulkDock/SCRATCH/511020/C32364-P7/C32364-P7.minimised.mol

>  <scratch_subdir>  (145) 
/opt/xchem-fragalysis-2/maxwin/BulkDock/SCRATCH/511020/C32364-P7

>  <fragmenstein_runtime>  (145) 
19.006094217300415

>  <fragmenstein_outcome>  (145) 
too moved

>  <fragmenstein_mode>  (145) 
expansion

>  <fragmenstein_error>  (145) 


$$$$
C32364-P114
     RDKit          3D

 45 46  0  0  0  0  0  0  0  0999 V2000
   -5.0865   -5.6170   34.2920 C   0  0  0  0  0  0  0  0  0  0  0  0
   -4.4476   -4.2454   34.1470 C   0  0  0  0  0  0  0  0  0  0  0  0
   -5.3988   -3.3082   33.6627 O   0  0  0  0  0  0  0  0  0  0  0  0
   -4.9662   -2.5186   32.5447 C   0  0  0  0  0  0  0  0  0  0  0  0
   -4.0437   -1.3116   32.8321 C   0  0  0  0  0  0  0  0  0  0  0  0
   -2.5194   -1.6596   32.9602 C   0  0  0  0  0  0  0  0  0  0  0  0
   -2.1429   -2.0256   34.0424 O   0  0  0  0  0  0  0  0  0  0  0  0
   -1.7907   -1.5675   31.6599 N   0  0  0  0  0  0  0  0  0  0  0  0
   -0.3668   -1.8037   31.3302 C   0  0  0  0  0  0  0  0  0  0  0  0
    0.1367   -1.5814   29.8891 C   0  0  0  0  0  0  0  0  0  0  0  0
    0.0947   -0.4734   29.1634 N   0  0  0  0  0  0  0  0  0  0  0  0
    0.9316   -0.6718   28.0805 C   0  0  0  0  0  0  0  0  0  0  0  0
    1.4754   -1.9291   28.1104 C   0  0  0  0  0  0  0  0  0  0  0  0
    0.9507   -2.5054   29.2371 N   0  0  0  0  0  0  0  0  0  0  0  0
   -4.6946   -0.4691   33.8626 N   0  0  0  0  0  0  0  0  0  0  0  0
   -5.0387   -0.7605   35.1611 C   0  0  0  0  0  0  0  0  0  0  0  0
   -6.1129    0.0652   35.4399 C   0  0  0  0  0  0  0  0  0  0  0  0
   -7.0046    0.1390   36.6296 C   0  0  0  0  0  0  0  0  0  0  0  0
   -7.1519    1.5564   37.1711 C   0  0  0  0  0  0  0  0  0  0  0  0
   -7.9707    1.5138   38.3435 O   0  0  0  0  0  0  0  0  0  0  0  0
   -8.1521    2.8100   38.8989 C   0  0  0  0  0  0  0  0  0  0  0  0
   -6.3322    0.8763   34.3624 N   0  0  0  0  0  0  0  0  0  0  0  0
   -5.4553    0.5643   33.4201 N   0  0  0  0  0  0  0  0  0  0  0  0
   -4.3861   -6.3243   34.7448 H   0  0  0  0  0  0  0  0  0  0  0  0
   -5.9956   -5.5817   34.8950 H   0  0  0  0  0  0  0  0  0  0  0  0
   -5.3975   -6.0120   33.3222 H   0  0  0  0  0  0  0  0  0  0  0  0
   -4.0619   -3.8860   35.1033 H   0  0  0  0  0  0  0  0  0  0  0  0
   -3.5806   -4.3216   33.4836 H   0  0  0  0  0  0  0  0  0  0  0  0
   -4.5123   -3.1669   31.7918 H   0  0  0  0  0  0  0  0  0  0  0  0
   -5.8912   -2.1353   32.0973 H   0  0  0  0  0  0  0  0  0  0  0  0
   -4.0551   -0.6632   31.9580 H   0  0  0  0  0  0  0  0  0  0  0  0
   -2.3947   -1.1360   30.9686 H   0  0  0  0  0  0  0  0  0  0  0  0
   -0.1521   -2.8330   31.6395 H   0  0  0  0  0  0  0  0  0  0  0  0
    0.2109   -1.1504   31.9942 H   0  0  0  0  0  0  0  0  0  0  0  0
    1.0943    0.1087   27.3506 H   0  0  0  0  0  0  0  0  0  0  0  0
    2.1580   -2.4441   27.4481 H   0  0  0  0  0  0  0  0  0  0  0  0
    1.1807   -3.4243   29.5860 H   0  0  0  0  0  0  0  0  0  0  0  0
   -4.5650   -1.5576   35.7134 H   0  0  0  0  0  0  0  0  0  0  0  0
   -6.6221   -0.5131   37.4248 H   0  0  0  0  0  0  0  0  0  0  0  0
   -7.9926   -0.2600   36.3685 H   0  0  0  0  0  0  0  0  0  0  0  0
   -6.1694    1.9704   37.4286 H   0  0  0  0  0  0  0  0  0  0  0  0
   -7.6212    2.2073   36.4235 H   0  0  0  0  0  0  0  0  0  0  0  0
   -8.7814    2.7183   39.7882 H   0  0  0  0  0  0  0  0  0  0  0  0
   -7.1895    3.2383   39.1943 H   0  0  0  0  0  0  0  0  0  0  0  0
   -8.6537    3.4671   38.1819 H   0  0  0  0  0  0  0  0  0  0  0  0
  1  2  1  0
  2  3  1  0
  3  4  1  0
  4  5  1  0
  5  6  1  0
  6  7  2  0
  6  8  1  0
  8  9  1  0
  9 10  1  0
 10 11  2  0
 11 12  1  0
 12 13  2  0
 13 14  1  0
  5 15  1  0
 15 16  1  0
 16 17  2  0
 17 18  1  0
 18 19  1  0
 19 20  1  0
 20 21  1  0
 17 22  1  0
 22 23  2  0
 14 10  1  0
 23 15  1  0
  1 24  1  0
  1 25  1  0
  1 26  1  0
  2 27  1  0
  2 28  1  0
  4 29  1  0
  4 30  1  0
  5 31  1  0
  8 32  1  0
  9 33  1  0
  9 34  1  0
 12 35  1  0
 13 36  1  0
 14 37  1  0
 16 38  1  0
 18 39  1  0
 18 40  1  0
 19 41  1  0
 19 42  1  0
 21 43  1  0
 21 44  1  0
 21 45  1  0
M  END
>  <Energy>  (146) 
43.048644715357874

>  <compound_id>  (146) 
32364

>  <target_id>  (146) 
1

>  <reference_id>  (146) 
114

>  <inspiration_ids>  (146) 
[7, 114]

>  <energy_score>  (146) 
-16.174129869423155

>  <distance_score>  (146) 
12.611723003294163

>  <path>  (146) 
/opt/xchem-fragalysis-2/maxwin/BulkDock/SCRATCH/511020/C32364-P114/C32364-P114.minimised.mol

>  <scratch_subdir>  (146) 
/opt/xchem-fragalysis-2/maxwin/BulkDock/SCRATCH/511020/C32364-P114

>  <fragmenstein_runtime>  (146) 
13.723130226135254

>  <fragmenstein_outcome>  (146) 
too moved

>  <fragmenstein_mode>  (146) 
expansion

>  <fragmenstein_error>  (146) 


$$$$
C32365-P7
     RDKit          3D

 41 42  0  0  0  0  0  0  0  0999 V2000
   -6.4623    0.0322   36.7323 C   0  0  0  0  0  0  0  0  0  0  0  0
   -6.6754   -0.5104   35.4362 O   0  0  0  0  0  0  0  0  0  0  0  0
   -6.4239    0.4654   34.4157 C   0  0  0  0  0  0  0  0  0  0  0  0
   -6.4520   -0.2028   33.0439 C   0  0  0  0  0  0  0  0  0  0  0  0
   -5.1281   -0.7851   32.6367 C   0  0  0  0  0  0  0  0  0  0  0  0
   -4.3658   -0.5812   31.4976 C   0  0  0  0  0  0  0  0  0  0  0  0
   -3.2569   -1.3967   31.6421 N   0  0  0  0  0  0  0  0  0  0  0  0
   -2.2896   -1.8300   30.5816 C   0  0  0  0  0  0  0  0  0  0  0  0
   -2.1822   -3.3625   30.5817 C   0  0  0  0  0  0  0  0  0  0  0  0
   -0.8609   -1.1377   30.6195 C   0  0  0  0  0  0  0  0  0  0  0  0
   -0.6302   -0.3534   31.4979 O   0  0  0  0  0  0  0  0  0  0  0  0
   -0.0219   -1.5872   29.4869 N   0  0  0  0  0  0  0  0  0  0  0  0
    1.4073   -1.2811   29.1394 C   0  0  0  0  0  0  0  0  0  0  0  0
    1.7572   -1.6655   27.6798 C   0  0  0  0  0  0  0  0  0  0  0  0
    3.1660   -1.4695   27.1208 C   0  0  0  0  0  0  0  0  0  0  0  0
    4.2600   -1.0414   27.7220 N   0  0  0  0  0  0  0  0  0  0  0  0
    5.2607   -1.0427   26.7682 C   0  0  0  0  0  0  0  0  0  0  0  0
    4.7845   -1.4873   25.5634 C   0  0  0  0  0  0  0  0  0  0  0  0
    3.4631   -1.7629   25.7940 N   0  0  0  0  0  0  0  0  0  0  0  0
   -3.3700   -2.0840   32.8048 N   0  0  0  0  0  0  0  0  0  0  0  0
   -4.4931   -1.7148   33.4136 N   0  0  0  0  0  0  0  0  0  0  0  0
   -7.1162    0.8933   36.9004 H   0  0  0  0  0  0  0  0  0  0  0  0
   -6.7012   -0.7374   37.4712 H   0  0  0  0  0  0  0  0  0  0  0  0
   -5.4148    0.3224   36.8579 H   0  0  0  0  0  0  0  0  0  0  0  0
   -7.2275    1.2081   34.4719 H   0  0  0  0  0  0  0  0  0  0  0  0
   -5.4653    0.9678   34.5927 H   0  0  0  0  0  0  0  0  0  0  0  0
   -7.2024   -1.0007   33.0230 H   0  0  0  0  0  0  0  0  0  0  0  0
   -6.7357    0.5387   32.2893 H   0  0  0  0  0  0  0  0  0  0  0  0
   -4.5104    0.0333   30.6233 H   0  0  0  0  0  0  0  0  0  0  0  0
   -2.7604   -1.5109   29.6419 H   0  0  0  0  0  0  0  0  0  0  0  0
   -3.1731   -3.8298   30.6176 H   0  0  0  0  0  0  0  0  0  0  0  0
   -1.6071   -3.7158   31.4452 H   0  0  0  0  0  0  0  0  0  0  0  0
   -1.6845   -3.7453   29.6870 H   0  0  0  0  0  0  0  0  0  0  0  0
   -0.5051   -2.3213   28.9869 H   0  0  0  0  0  0  0  0  0  0  0  0
    1.5705   -0.2147   29.3250 H   0  0  0  0  0  0  0  0  0  0  0  0
    2.0284   -1.8421   29.8453 H   0  0  0  0  0  0  0  0  0  0  0  0
    1.4976   -2.7222   27.5425 H   0  0  0  0  0  0  0  0  0  0  0  0
    1.0792   -1.0802   27.0567 H   0  0  0  0  0  0  0  0  0  0  0  0
    6.2622   -0.7123   27.0103 H   0  0  0  0  0  0  0  0  0  0  0  0
    5.2322   -1.6012   24.5878 H   0  0  0  0  0  0  0  0  0  0  0  0
    2.7903   -2.0968   25.1091 H   0  0  0  0  0  0  0  0  0  0  0  0
  1  2  1  0
  2  3  1  0
  3  4  1  0
  4  5  1  0
  5  6  2  0
  6  7  1  0
  7  8  1  0
  8  9  1  0
  8 10  1  0
 10 11  2  0
 10 12  1  0
 12 13  1  0
 13 14  1  0
 14 15  1  0
 15 16  2  0
 16 17  1  0
 17 18  2  0
 18 19  1  0
  7 20  1  0
 20 21  2  0
 21  5  1  0
 19 15  1  0
  1 22  1  0
  1 23  1  0
  1 24  1  0
  3 25  1  0
  3 26  1  0
  4 27  1  0
  4 28  1  0
  6 29  1  0
  8 30  1  0
  9 31  1  0
  9 32  1  0
  9 33  1  0
 12 34  1  0
 13 35  1  0
 13 36  1  0
 14 37  1  0
 14 38  1  0
 17 39  1  0
 18 40  1  0
 19 41  1  0
M  END
>  <Energy>  (147) 
40.67327635372564

>  <compound_id>  (147) 
32365

>  <target_id>  (147) 
1

>  <reference_id>  (147) 
7

>  <inspiration_ids>  (147) 
[7, 114]

>  <energy_score>  (147) 
-24.811517693506687

>  <distance_score>  (147) 
12.723532365604004

>  <path>  (147) 
/opt/xchem-fragalysis-2/maxwin/BulkDock/SCRATCH/511020/C32365-P7/C32365-P7.minimised.mol

>  <scratch_subdir>  (147) 
/opt/xchem-fragalysis-2/maxwin/BulkDock/SCRATCH/511020/C32365-P7

>  <fragmenstein_runtime>  (147) 
12.327713966369629

>  <fragmenstein_outcome>  (147) 
too moved

>  <fragmenstein_mode>  (147) 
expansion

>  <fragmenstein_error>  (147) 


$$$$
C32365-P114
     RDKit          3D

 41 42  0  0  0  0  0  0  0  0999 V2000
  -10.6043   -1.7767   35.6663 C   0  0  0  0  0  0  0  0  0  0  0  0
  -10.2640   -2.2057   34.3560 O   0  0  0  0  0  0  0  0  0  0  0  0
  -11.3965   -2.6201   33.4487 C   0  0  0  0  0  0  0  0  0  0  0  0
  -11.6517   -2.9948   31.6193 C   0  0  0  0  0  0  0  0  0  0  0  0
  -11.3939   -3.1122   29.9902 C   0  0  0  0  0  0  0  0  0  0  0  0
  -11.8696   -2.4106   28.8580 C   0  0  0  0  0  0  0  0  0  0  0  0
  -10.8830   -2.6397   27.8902 N   0  0  0  0  0  0  0  0  0  0  0  0
  -10.2620   -1.7176   26.9098 C   0  0  0  0  0  0  0  0  0  0  0  0
  -11.0797   -1.7382   25.6189 C   0  0  0  0  0  0  0  0  0  0  0  0
   -8.7228   -2.0219   26.5699 C   0  0  0  0  0  0  0  0  0  0  0  0
   -8.5051   -2.9482   25.8350 O   0  0  0  0  0  0  0  0  0  0  0  0
   -7.8027   -1.0677   27.2018 N   0  0  0  0  0  0  0  0  0  0  0  0
   -6.3098   -1.0080   27.2112 C   0  0  0  0  0  0  0  0  0  0  0  0
   -5.6684    0.3574   26.8346 C   0  0  0  0  0  0  0  0  0  0  0  0
   -4.1313    0.4136   26.7736 C   0  0  0  0  0  0  0  0  0  0  0  0
   -3.2523   -0.5169   27.0895 N   0  0  0  0  0  0  0  0  0  0  0  0
   -2.0059    0.0768   27.0421 C   0  0  0  0  0  0  0  0  0  0  0  0
   -2.1032    1.3586   26.5662 C   0  0  0  0  0  0  0  0  0  0  0  0
   -3.4489    1.5603   26.3914 N   0  0  0  0  0  0  0  0  0  0  0  0
  -10.3237   -3.8132   28.1500 N   0  0  0  0  0  0  0  0  0  0  0  0
  -10.6143   -4.0845   29.4015 N   0  0  0  0  0  0  0  0  0  0  0  0
  -11.1862   -2.5369   36.1928 H   0  0  0  0  0  0  0  0  0  0  0  0
   -9.6750   -1.6072   36.2152 H   0  0  0  0  0  0  0  0  0  0  0  0
  -11.1236   -0.8168   35.6337 H   0  0  0  0  0  0  0  0  0  0  0  0
  -11.8849   -3.3905   34.0404 H   0  0  0  0  0  0  0  0  0  0  0  0
  -11.8878   -1.6776   33.5384 H   0  0  0  0  0  0  0  0  0  0  0  0
  -12.3705   -3.8098   31.6487 H   0  0  0  0  0  0  0  0  0  0  0  0
  -12.0656   -2.0359   31.4463 H   0  0  0  0  0  0  0  0  0  0  0  0
  -12.5930   -1.6212   28.7182 H   0  0  0  0  0  0  0  0  0  0  0  0
  -10.3310   -0.7164   27.3388 H   0  0  0  0  0  0  0  0  0  0  0  0
  -11.1146   -2.7426   25.1818 H   0  0  0  0  0  0  0  0  0  0  0  0
  -10.6443   -1.0648   24.8730 H   0  0  0  0  0  0  0  0  0  0  0  0
  -12.1122   -1.4213   25.8027 H   0  0  0  0  0  0  0  0  0  0  0  0
   -8.3259   -0.4674   27.8268 H   0  0  0  0  0  0  0  0  0  0  0  0
   -5.9557   -1.7967   26.5428 H   0  0  0  0  0  0  0  0  0  0  0  0
   -6.0047   -1.2862   28.2261 H   0  0  0  0  0  0  0  0  0  0  0  0
   -5.9995    1.1057   27.5661 H   0  0  0  0  0  0  0  0  0  0  0  0
   -6.0672    0.6797   25.8659 H   0  0  0  0  0  0  0  0  0  0  0  0
   -1.1183   -0.4640   27.3482 H   0  0  0  0  0  0  0  0  0  0  0  0
   -1.3718    2.1338   26.3884 H   0  0  0  0  0  0  0  0  0  0  0  0
   -3.8889    2.4140   26.0733 H   0  0  0  0  0  0  0  0  0  0  0  0
  1  2  1  0
  2  3  1  0
  3  4  1  0
  4  5  1  0
  5  6  2  0
  6  7  1  0
  7  8  1  0
  8  9  1  0
  8 10  1  0
 10 11  2  0
 10 12  1  0
 12 13  1  0
 13 14  1  0
 14 15  1  0
 15 16  2  0
 16 17  1  0
 17 18  2  0
 18 19  1  0
  7 20  1  0
 20 21  2  0
 21  5  1  0
 19 15  1  0
  1 22  1  0
  1 23  1  0
  1 24  1  0
  3 25  1  0
  3 26  1  0
  4 27  1  0
  4 28  1  0
  6 29  1  0
  8 30  1  0
  9 31  1  0
  9 32  1  0
  9 33  1  0
 12 34  1  0
 13 35  1  0
 13 36  1  0
 14 37  1  0
 14 38  1  0
 17 39  1  0
 18 40  1  0
 19 41  1  0
M  END
>  <Energy>  (148) 
183.57704925674022

>  <compound_id>  (148) 
32365

>  <target_id>  (148) 
1

>  <reference_id>  (148) 
114

>  <inspiration_ids>  (148) 
[7, 114]

>  <energy_score>  (148) 
118.09225520950798

>  <distance_score>  (148) 
14.234059479827748

>  <path>  (148) 
/opt/xchem-fragalysis-2/maxwin/BulkDock/SCRATCH/511020/C32365-P114/C32365-P114.minimised.mol

>  <scratch_subdir>  (148) 
/opt/xchem-fragalysis-2/maxwin/BulkDock/SCRATCH/511020/C32365-P114

>  <fragmenstein_runtime>  (148) 
13.424500942230225

>  <fragmenstein_outcome>  (148) 
too moved

>  <fragmenstein_mode>  (148) 
expansion

>  <fragmenstein_error>  (148) 


$$$$
C48763-P7
     RDKit          3D

 45 46  0  0  0  0  0  0  0  0999 V2000
   -7.0122   -0.0198   37.7132 C   0  0  0  0  0  0  0  0  0  0  0  0
   -7.2231   -0.2142   36.3198 O   0  0  0  0  0  0  0  0  0  0  0  0
   -5.9888   -0.4125   35.6257 C   0  0  0  0  0  0  0  0  0  0  0  0
   -6.2787   -0.5989   34.1405 C   0  0  0  0  0  0  0  0  0  0  0  0
   -5.0661   -1.0315   33.3827 C   0  0  0  0  0  0  0  0  0  0  0  0
   -3.9858   -0.3029   32.9278 C   0  0  0  0  0  0  0  0  0  0  0  0
   -3.1755   -1.2175   32.2828 N   0  0  0  0  0  0  0  0  0  0  0  0
   -1.8462   -0.9637   31.6969 C   0  0  0  0  0  0  0  0  0  0  0  0
   -0.7875   -1.0141   32.8034 C   0  0  0  0  0  0  0  0  0  0  0  0
   -1.3718   -1.8516   30.4784 C   0  0  0  0  0  0  0  0  0  0  0  0
   -0.1799   -1.3929   29.6816 N   0  0  0  0  0  0  0  0  0  0  0  0
    1.0052   -2.1275   29.2116 C   0  0  0  0  0  0  0  0  0  0  0  0
    1.3555   -3.2596   29.4154 O   0  0  0  0  0  0  0  0  0  0  0  0
    1.8699   -1.2217   28.1735 C   0  0  0  0  0  0  0  0  0  0  0  0
    1.8971    0.1438   28.6080 O   0  0  0  0  0  0  0  0  0  0  0  0
    3.3241   -1.7694   27.9070 C   0  0  0  0  0  0  0  0  0  0  0  0
    4.0698   -1.2870   26.6823 C   0  0  0  0  0  0  0  0  0  0  0  0
    4.2288   -1.9267   25.4709 C   0  0  0  0  0  0  0  0  0  0  0  0
    5.0607   -1.1373   24.7275 N   0  0  0  0  0  0  0  0  0  0  0  0
    5.3803   -0.0559   25.4939 C   0  0  0  0  0  0  0  0  0  0  0  0
    4.8140   -0.1219   26.6822 N   0  0  0  0  0  0  0  0  0  0  0  0
   -3.7196   -2.4470   32.3703 N   0  0  0  0  0  0  0  0  0  0  0  0
   -4.8757   -2.3427   33.0256 N   0  0  0  0  0  0  0  0  0  0  0  0
   -7.9847    0.1248   38.1911 H   0  0  0  0  0  0  0  0  0  0  0  0
   -6.5333   -0.8993   38.1541 H   0  0  0  0  0  0  0  0  0  0  0  0
   -6.4006    0.8707   37.8872 H   0  0  0  0  0  0  0  0  0  0  0  0
   -5.4821   -1.2942   36.0340 H   0  0  0  0  0  0  0  0  0  0  0  0
   -5.3384    0.4577   35.7769 H   0  0  0  0  0  0  0  0  0  0  0  0
   -7.0789   -1.3369   34.0098 H   0  0  0  0  0  0  0  0  0  0  0  0
   -6.6697    0.3357   33.7201 H   0  0  0  0  0  0  0  0  0  0  0  0
   -3.7251    0.7428   32.9960 H   0  0  0  0  0  0  0  0  0  0  0  0
   -1.9021    0.0696   31.3281 H   0  0  0  0  0  0  0  0  0  0  0  0
   -1.0406   -0.3362   33.6261 H   0  0  0  0  0  0  0  0  0  0  0  0
   -0.7024   -2.0236   33.2211 H   0  0  0  0  0  0  0  0  0  0  0  0
    0.1956   -0.7190   32.4223 H   0  0  0  0  0  0  0  0  0  0  0  0
   -1.1602   -2.8731   30.8147 H   0  0  0  0  0  0  0  0  0  0  0  0
   -2.1836   -1.9182   29.7483 H   0  0  0  0  0  0  0  0  0  0  0  0
   -0.1113   -0.4221   29.3792 H   0  0  0  0  0  0  0  0  0  0  0  0
    1.3099   -1.2448   27.2355 H   0  0  0  0  0  0  0  0  0  0  0  0
    2.7115    0.5284   28.2217 H   0  0  0  0  0  0  0  0  0  0  0  0
    3.9420   -1.5340   28.7834 H   0  0  0  0  0  0  0  0  0  0  0  0
    3.2716   -2.8592   27.8491 H   0  0  0  0  0  0  0  0  0  0  0  0
    3.7875   -2.8292   25.0779 H   0  0  0  0  0  0  0  0  0  0  0  0
    5.2443   -1.2405   23.7399 H   0  0  0  0  0  0  0  0  0  0  0  0
    6.0027    0.7501   25.1318 H   0  0  0  0  0  0  0  0  0  0  0  0
  1  2  1  0
  2  3  1  0
  3  4  1  0
  4  5  1  0
  5  6  2  0
  6  7  1  0
  7  8  1  0
  8  9  1  0
  8 10  1  0
 10 11  1  0
 11 12  1  0
 12 13  2  0
 12 14  1  0
 14 15  1  0
 14 16  1  0
 16 17  1  0
 17 18  2  0
 18 19  1  0
 19 20  1  0
 20 21  2  0
  7 22  1  0
 22 23  2  0
 23  5  1  0
 21 17  1  0
  1 24  1  0
  1 25  1  0
  1 26  1  0
  3 27  1  0
  3 28  1  0
  4 29  1  0
  4 30  1  0
  6 31  1  0
  8 32  1  0
  9 33  1  0
  9 34  1  0
  9 35  1  0
 10 36  1  0
 10 37  1  0
 11 38  1  0
 14 39  1  0
 15 40  1  0
 16 41  1  0
 16 42  1  0
 18 43  1  0
 19 44  1  0
 20 45  1  0
M  END
>  <Energy>  (149) 
50.3943731437152

>  <compound_id>  (149) 
48763

>  <target_id>  (149) 
1

>  <reference_id>  (149) 
7

>  <inspiration_ids>  (149) 
[7, 114]

>  <energy_score>  (149) 
-13.200946083959082

>  <distance_score>  (149) 
12.455799308841996

>  <path>  (149) 
/opt/xchem-fragalysis-2/maxwin/BulkDock/SCRATCH/511020/C48763-P7/C48763-P7.minimised.mol

>  <scratch_subdir>  (149) 
/opt/xchem-fragalysis-2/maxwin/BulkDock/SCRATCH/511020/C48763-P7

>  <fragmenstein_runtime>  (149) 
23.911792993545532

>  <fragmenstein_outcome>  (149) 
too moved

>  <fragmenstein_mode>  (149) 
expansion

>  <fragmenstein_error>  (149) 


$$$$
C48763-P114
     RDKit          3D

 45 46  0  0  0  0  0  0  0  0999 V2000
   -5.5855   -0.4471   34.8073 C   0  0  0  0  0  0  0  0  0  0  0  0
   -4.2484   -0.7205   34.4083 O   0  0  0  0  0  0  0  0  0  0  0  0
   -4.0731   -0.5315   33.0015 C   0  0  0  0  0  0  0  0  0  0  0  0
   -2.6016   -0.7048   32.6535 C   0  0  0  0  0  0  0  0  0  0  0  0
   -2.3268   -0.6603   31.1839 C   0  0  0  0  0  0  0  0  0  0  0  0
   -2.0774   -1.6768   30.2763 C   0  0  0  0  0  0  0  0  0  0  0  0
   -2.1763   -1.0679   29.0215 N   0  0  0  0  0  0  0  0  0  0  0  0
   -2.6758   -1.7254   27.7769 C   0  0  0  0  0  0  0  0  0  0  0  0
   -4.0947   -2.3121   27.9031 C   0  0  0  0  0  0  0  0  0  0  0  0
   -2.7123   -0.8900   26.4368 C   0  0  0  0  0  0  0  0  0  0  0  0
   -3.5058   -1.7196   24.9517 N   0  0  0  0  0  0  0  0  0  0  0  0
   -2.8753   -2.0141   23.3059 C   0  0  0  0  0  0  0  0  0  0  0  0
   -1.7567   -1.7890   22.9123 O   0  0  0  0  0  0  0  0  0  0  0  0
   -3.9880   -2.5959   21.8170 C   0  0  0  0  0  0  0  0  0  0  0  0
   -5.4236   -2.6548   21.5598 O   0  0  0  0  0  0  0  0  0  0  0  0
   -3.5765   -1.2575   20.6027 C   0  0  0  0  0  0  0  0  0  0  0  0
   -2.3442   -1.0374   19.6498 C   0  0  0  0  0  0  0  0  0  0  0  0
   -1.9580   -1.7112   18.4943 C   0  0  0  0  0  0  0  0  0  0  0  0
   -0.8092   -1.1074   18.0511 N   0  0  0  0  0  0  0  0  0  0  0  0
   -0.6512    0.0269   18.7851 C   0  0  0  0  0  0  0  0  0  0  0  0
   -1.5981    0.1401   19.6952 N   0  0  0  0  0  0  0  0  0  0  0  0
   -2.2019    0.2716   29.1934 N   0  0  0  0  0  0  0  0  0  0  0  0
   -2.3584    0.5251   30.4938 N   0  0  0  0  0  0  0  0  0  0  0  0
   -5.6641   -0.6154   35.8847 H   0  0  0  0  0  0  0  0  0  0  0  0
   -5.8433    0.5953   34.5971 H   0  0  0  0  0  0  0  0  0  0  0  0
   -6.2823   -1.1190   34.2966 H   0  0  0  0  0  0  0  0  0  0  0  0
   -4.4140    0.4708   32.7159 H   0  0  0  0  0  0  0  0  0  0  0  0
   -4.6793   -1.2784   32.4762 H   0  0  0  0  0  0  0  0  0  0  0  0
   -2.0130    0.0722   33.1568 H   0  0  0  0  0  0  0  0  0  0  0  0
   -2.2397   -1.6564   33.0635 H   0  0  0  0  0  0  0  0  0  0  0  0
   -1.9966   -2.7465   30.3730 H   0  0  0  0  0  0  0  0  0  0  0  0
   -1.8614   -2.4440   27.6590 H   0  0  0  0  0  0  0  0  0  0  0  0
   -4.5833   -2.0273   27.0148 H   0  0  0  0  0  0  0  0  0  0  0  0
   -4.4665   -2.5546   28.8750 H   0  0  0  0  0  0  0  0  0  0  0  0
   -4.6062   -3.2118   27.6243 H   0  0  0  0  0  0  0  0  0  0  0  0
   -1.7032   -0.4778   26.2556 H   0  0  0  0  0  0  0  0  0  0  0  0
   -3.1349    0.1164   26.5044 H   0  0  0  0  0  0  0  0  0  0  0  0
   -4.4000   -2.0607   25.0211 H   0  0  0  0  0  0  0  0  0  0  0  0
   -3.8540   -3.6601   21.6809 H   0  0  0  0  0  0  0  0  0  0  0  0
   -5.7467   -1.8064   21.2151 H   0  0  0  0  0  0  0  0  0  0  0  0
   -3.6885   -0.3240   21.1604 H   0  0  0  0  0  0  0  0  0  0  0  0
   -4.4221   -1.2736   19.8981 H   0  0  0  0  0  0  0  0  0  0  0  0
   -2.3530   -2.5911   18.0070 H   0  0  0  0  0  0  0  0  0  0  0  0
   -0.2285   -1.4068   17.2805 H   0  0  0  0  0  0  0  0  0  0  0  0
    0.1504    0.7309   18.6122 H   0  0  0  0  0  0  0  0  0  0  0  0
  1  2  1  0
  2  3  1  0
  3  4  1  0
  4  5  1  0
  5  6  2  0
  6  7  1  0
  7  8  1  0
  8  9  1  0
  8 10  1  0
 10 11  1  0
 11 12  1  0
 12 13  2  0
 12 14  1  0
 14 15  1  0
 14 16  1  0
 16 17  1  0
 17 18  2  0
 18 19  1  0
 19 20  1  0
 20 21  2  0
  7 22  1  0
 22 23  2  0
 23  5  1  0
 21 17  1  0
  1 24  1  0
  1 25  1  0
  1 26  1  0
  3 27  1  0
  3 28  1  0
  4 29  1  0
  4 30  1  0
  6 31  1  0
  8 32  1  0
  9 33  1  0
  9 34  1  0
  9 35  1  0
 10 36  1  0
 10 37  1  0
 11 38  1  0
 14 39  1  0
 15 40  1  0
 16 41  1  0
 16 42  1  0
 18 43  1  0
 19 44  1  0
 20 45  1  0
M  END
>  <Energy>  (150) 
292.53020569646628

>  <compound_id>  (150) 
48763

>  <target_id>  (150) 
1

>  <reference_id>  (150) 
114

>  <inspiration_ids>  (150) 
[7, 114]

>  <energy_score>  (150) 
228.93488646879382

>  <distance_score>  (150) 
14.31201298479476

>  <path>  (150) 
/opt/xchem-fragalysis-2/maxwin/BulkDock/SCRATCH/511020/C48763-P114/C48763-P114.minimised.mol

>  <scratch_subdir>  (150) 
/opt/xchem-fragalysis-2/maxwin/BulkDock/SCRATCH/511020/C48763-P114

>  <fragmenstein_runtime>  (150) 
13.104817390441895

>  <fragmenstein_outcome>  (150) 
too moved

>  <fragmenstein_mode>  (150) 
expansion

>  <fragmenstein_error>  (150) 


$$$$
C32361-P7
     RDKit          3D

 48 49  0  0  0  0  0  0  0  0999 V2000
   -7.2280   -3.1204   28.5158 C   0  0  0  0  0  0  0  0  0  0  0  0
   -5.6768   -3.3650   28.6808 C   0  0  0  0  0  0  0  0  0  0  0  0
   -4.4912   -2.6228   28.0878 O   0  0  0  0  0  0  0  0  0  0  0  0
   -3.9432   -2.1097   26.7750 C   0  0  0  0  0  0  0  0  0  0  0  0
   -2.6259   -1.0667   26.5245 C   0  0  0  0  0  0  0  0  0  0  0  0
   -1.7976   -0.4288   24.7448 C   0  0  0  0  0  0  0  0  0  0  0  0
   -1.5995    1.0689   24.8403 O   0  0  0  0  0  0  0  0  0  0  0  0
   -1.2165   -1.7162   23.2112 N   0  0  0  0  0  0  0  0  0  0  0  0
   -0.0422   -1.5018   21.4000 C   0  0  0  0  0  0  0  0  0  0  0  0
    1.4478    0.1548   21.1086 C   0  0  0  0  0  0  0  0  0  0  0  0
    0.5530   -1.1114   19.3556 C   0  0  0  0  0  0  0  0  0  0  0  0
    0.7708   -2.0597   18.3047 N   0  0  0  0  0  0  0  0  0  0  0  0
    1.3687   -1.5973   17.1652 C   0  0  0  0  0  0  0  0  0  0  0  0
    1.4434   -0.2564   17.2285 C   0  0  0  0  0  0  0  0  0  0  0  0
    0.8120    0.0564   18.3965 N   0  0  0  0  0  0  0  0  0  0  0  0
   -2.4451   -0.0248   27.6196 N   0  0  0  0  0  0  0  0  0  0  0  0
   -2.1977   -0.2891   28.9652 C   0  0  0  0  0  0  0  0  0  0  0  0
   -2.4306    0.9105   29.6090 C   0  0  0  0  0  0  0  0  0  0  0  0
   -2.6815    1.2034   31.0523 C   0  0  0  0  0  0  0  0  0  0  0  0
   -1.6538    2.1688   31.6301 C   0  0  0  0  0  0  0  0  0  0  0  0
   -1.9099    2.3288   33.0289 O   0  0  0  0  0  0  0  0  0  0  0  0
   -0.9957    3.2426   33.6219 C   0  0  0  0  0  0  0  0  0  0  0  0
   -2.5611    1.8840   28.6475 N   0  0  0  0  0  0  0  0  0  0  0  0
   -2.5553    1.3031   27.4431 N   0  0  0  0  0  0  0  0  0  0  0  0
   -7.5585   -2.5012   27.6855 H   0  0  0  0  0  0  0  0  0  0  0  0
   -7.7402   -4.0855   28.4098 H   0  0  0  0  0  0  0  0  0  0  0  0
   -7.6574   -2.7249   29.4351 H   0  0  0  0  0  0  0  0  0  0  0  0
   -5.4910   -3.3184   29.7661 H   0  0  0  0  0  0  0  0  0  0  0  0
   -5.6010   -4.4272   28.5933 H   0  0  0  0  0  0  0  0  0  0  0  0
   -3.4423   -2.7899   26.1213 H   0  0  0  0  0  0  0  0  0  0  0  0
   -4.7886   -2.0206   26.1221 H   0  0  0  0  0  0  0  0  0  0  0  0
   -1.8285   -1.6749   27.0199 H   0  0  0  0  0  0  0  0  0  0  0  0
   -1.5608   -2.6327   23.3985 H   0  0  0  0  0  0  0  0  0  0  0  0
    0.3943   -2.5651   21.7240 H   0  0  0  0  0  0  0  0  0  0  0  0
    2.2828    0.8399   21.6317 H   0  0  0  0  0  0  0  0  0  0  0  0
    1.2524    1.4058   21.4459 H   0  0  0  0  0  0  0  0  0  0  0  0
    1.8534   -0.0229   20.1414 H   0  0  0  0  0  0  0  0  0  0  0  0
    1.6893   -2.2694   16.3832 H   0  0  0  0  0  0  0  0  0  0  0  0
    1.8408    0.4991   16.5703 H   0  0  0  0  0  0  0  0  0  0  0  0
    0.7872    0.9927   18.7659 H   0  0  0  0  0  0  0  0  0  0  0  0
   -2.0553   -1.2987   29.3230 H   0  0  0  0  0  0  0  0  0  0  0  0
   -3.6880    1.6226   31.1714 H   0  0  0  0  0  0  0  0  0  0  0  0
   -2.6761    0.2711   31.6306 H   0  0  0  0  0  0  0  0  0  0  0  0
   -0.6395    1.7752   31.4914 H   0  0  0  0  0  0  0  0  0  0  0  0
   -1.7216    3.1430   31.1309 H   0  0  0  0  0  0  0  0  0  0  0  0
   -1.0920    4.2320   33.1645 H   0  0  0  0  0  0  0  0  0  0  0  0
    0.0308    2.8777   33.5203 H   0  0  0  0  0  0  0  0  0  0  0  0
   -1.2334    3.3252   34.6858 H   0  0  0  0  0  0  0  0  0  0  0  0
  1  2  1  0
  2  3  1  0
  3  4  1  0
  4  5  1  0
  5  6  1  0
  6  7  2  0
  6  8  1  0
  8  9  1  0
  9 10  1  0
  9 11  1  0
 11 12  2  0
 12 13  1  0
 13 14  2  0
 14 15  1  0
  5 16  1  0
 16 17  1  0
 17 18  2  0
 18 19  1  0
 19 20  1  0
 20 21  1  0
 21 22  1  0
 18 23  1  0
 23 24  2  0
 15 11  1  0
 24 16  1  0
  1 25  1  0
  1 26  1  0
  1 27  1  0
  2 28  1  0
  2 29  1  0
  4 30  1  0
  4 31  1  0
  5 32  1  0
  8 33  1  0
  9 34  1  0
 10 35  1  0
 10 36  1  0
 10 37  1  0
 13 38  1  0
 14 39  1  0
 15 40  1  0
 17 41  1  0
 19 42  1  0
 19 43  1  0
 20 44  1  0
 20 45  1  0
 22 46  1  0
 22 47  1  0
 22 48  1  0
M  END
>  <Energy>  (151) 
1111.9457491907569

>  <compound_id>  (151) 
32361

>  <target_id>  (151) 
1

>  <reference_id>  (151) 
7

>  <inspiration_ids>  (151) 
[7, 114]

>  <energy_score>  (151) 
1053.7681252428124

>  <distance_score>  (151) 
12.710880517452923

>  <path>  (151) 
/opt/xchem-fragalysis-2/maxwin/BulkDock/SCRATCH/511020/C32361-P7/C32361-P7.minimised.mol

>  <scratch_subdir>  (151) 
/opt/xchem-fragalysis-2/maxwin/BulkDock/SCRATCH/511020/C32361-P7

>  <fragmenstein_runtime>  (151) 
10.438344955444336

>  <fragmenstein_outcome>  (151) 
too moved

>  <fragmenstein_mode>  (151) 
expansion

>  <fragmenstein_error>  (151) 


$$$$
C32361-P114
     RDKit          3D

 48 49  0  0  0  0  0  0  0  0999 V2000
  -10.0992   -4.6092   27.6907 C   0  0  0  0  0  0  0  0  0  0  0  0
   -9.3559   -3.4352   28.2996 C   0  0  0  0  0  0  0  0  0  0  0  0
   -7.9411   -3.7354   28.3013 O   0  0  0  0  0  0  0  0  0  0  0  0
   -7.1447   -2.5857   27.9177 C   0  0  0  0  0  0  0  0  0  0  0  0
   -5.2805   -2.7565   27.9416 C   0  0  0  0  0  0  0  0  0  0  0  0
   -3.7423   -2.0588   26.7357 C   0  0  0  0  0  0  0  0  0  0  0  0
   -2.8618   -1.5962   27.4331 O   0  0  0  0  0  0  0  0  0  0  0  0
   -3.5064   -2.1496   24.8398 N   0  0  0  0  0  0  0  0  0  0  0  0
   -2.0864   -1.4946   23.6705 C   0  0  0  0  0  0  0  0  0  0  0  0
   -1.9295   -0.1514   25.3198 C   0  0  0  0  0  0  0  0  0  0  0  0
   -0.5116   -2.4142   22.7548 C   0  0  0  0  0  0  0  0  0  0  0  0
    0.8073   -2.1810   22.7889 N   0  0  0  0  0  0  0  0  0  0  0  0
    1.8404   -3.2976   22.7340 C   0  0  0  0  0  0  0  0  0  0  0  0
    1.2323   -4.2487   22.0659 C   0  0  0  0  0  0  0  0  0  0  0  0
    0.5045   -3.1960   21.5196 N   0  0  0  0  0  0  0  0  0  0  0  0
   -5.4356   -3.0011   29.8348 N   0  0  0  0  0  0  0  0  0  0  0  0
   -6.6142   -2.7088   30.6865 C   0  0  0  0  0  0  0  0  0  0  0  0
   -6.1761   -2.1463   31.8830 C   0  0  0  0  0  0  0  0  0  0  0  0
   -6.8989   -1.3164   32.8977 C   0  0  0  0  0  0  0  0  0  0  0  0
   -6.0705   -1.0081   34.1417 C   0  0  0  0  0  0  0  0  0  0  0  0
   -6.9024   -0.3352   35.0938 O   0  0  0  0  0  0  0  0  0  0  0  0
   -6.1405    0.1579   36.1896 C   0  0  0  0  0  0  0  0  0  0  0  0
   -4.8447   -2.3326   31.9794 N   0  0  0  0  0  0  0  0  0  0  0  0
   -4.3738   -2.6954   30.7994 N   0  0  0  0  0  0  0  0  0  0  0  0
  -11.1791   -4.4376   27.7111 H   0  0  0  0  0  0  0  0  0  0  0  0
   -9.8791   -5.5418   28.2171 H   0  0  0  0  0  0  0  0  0  0  0  0
   -9.7877   -4.7564   26.6511 H   0  0  0  0  0  0  0  0  0  0  0  0
   -9.6873   -3.2423   29.3205 H   0  0  0  0  0  0  0  0  0  0  0  0
   -9.5683   -2.5390   27.7048 H   0  0  0  0  0  0  0  0  0  0  0  0
   -7.4769   -1.7388   28.5320 H   0  0  0  0  0  0  0  0  0  0  0  0
   -7.5106   -2.2706   26.9360 H   0  0  0  0  0  0  0  0  0  0  0  0
   -5.1244   -3.7841   28.0271 H   0  0  0  0  0  0  0  0  0  0  0  0
   -4.3308   -2.4617   24.4298 H   0  0  0  0  0  0  0  0  0  0  0  0
   -2.7071   -1.4176   22.7668 H   0  0  0  0  0  0  0  0  0  0  0  0
   -1.7381    0.9577   25.2958 H   0  0  0  0  0  0  0  0  0  0  0  0
   -1.2955   -0.4361   26.1967 H   0  0  0  0  0  0  0  0  0  0  0  0
   -2.9291   -0.0876   25.7757 H   0  0  0  0  0  0  0  0  0  0  0  0
    2.7948   -3.0869   23.1948 H   0  0  0  0  0  0  0  0  0  0  0  0
    1.3854   -5.1861   21.5793 H   0  0  0  0  0  0  0  0  0  0  0  0
    0.2076   -3.4150   20.5947 H   0  0  0  0  0  0  0  0  0  0  0  0
   -7.6068   -2.7205   30.2843 H   0  0  0  0  0  0  0  0  0  0  0  0
   -7.1662   -0.3625   32.4273 H   0  0  0  0  0  0  0  0  0  0  0  0
   -7.8425   -1.7738   33.1870 H   0  0  0  0  0  0  0  0  0  0  0  0
   -5.6895   -1.9307   34.5935 H   0  0  0  0  0  0  0  0  0  0  0  0
   -5.2183   -0.3699   33.8771 H   0  0  0  0  0  0  0  0  0  0  0  0
   -5.6055   -0.6564   36.6868 H   0  0  0  0  0  0  0  0  0  0  0  0
   -6.8269    0.6158   36.9067 H   0  0  0  0  0  0  0  0  0  0  0  0
   -5.4331    0.9199   35.8486 H   0  0  0  0  0  0  0  0  0  0  0  0
  1  2  1  0
  2  3  1  0
  3  4  1  0
  4  5  1  0
  5  6  1  0
  6  7  2  0
  6  8  1  0
  8  9  1  0
  9 10  1  0
  9 11  1  0
 11 12  2  0
 12 13  1  0
 13 14  2  0
 14 15  1  0
  5 16  1  0
 16 17  1  0
 17 18  2  0
 18 19  1  0
 19 20  1  0
 20 21  1  0
 21 22  1  0
 18 23  1  0
 23 24  2  0
 15 11  1  0
 24 16  1  0
  1 25  1  0
  1 26  1  0
  1 27  1  0
  2 28  1  0
  2 29  1  0
  4 30  1  0
  4 31  1  0
  5 32  1  0
  8 33  1  0
  9 34  1  0
 10 35  1  0
 10 36  1  0
 10 37  1  0
 13 38  1  0
 14 39  1  0
 15 40  1  0
 17 41  1  0
 19 42  1  0
 19 43  1  0
 20 44  1  0
 20 45  1  0
 22 46  1  0
 22 47  1  0
 22 48  1  0
M  END
>  <Energy>  (152) 
833.67173835170342

>  <compound_id>  (152) 
32361

>  <target_id>  (152) 
1

>  <reference_id>  (152) 
114

>  <inspiration_ids>  (152) 
[7, 114]

>  <energy_score>  (152) 
775.494114403758

>  <distance_score>  (152) 
11.476242733899008

>  <path>  (152) 
/opt/xchem-fragalysis-2/maxwin/BulkDock/SCRATCH/511020/C32361-P114/C32361-P114.minimised.mol

>  <scratch_subdir>  (152) 
/opt/xchem-fragalysis-2/maxwin/BulkDock/SCRATCH/511020/C32361-P114

>  <fragmenstein_runtime>  (152) 
14.815404176712036

>  <fragmenstein_outcome>  (152) 
too moved

>  <fragmenstein_mode>  (152) 
expansion

>  <fragmenstein_error>  (152) 


$$$$
C9289-P96
     RDKit          3D

 41 44  0  0  0  0  0  0  0  0999 V2000
    2.1426  -21.6453   31.0974 C   0  0  0  0  0  0  0  0  0  0  0  0
    1.2140  -21.5887   32.5379 C   0  0  0  0  0  0  0  0  0  0  0  0
   -0.9430  -22.1937   33.0850 C   0  0  0  0  0  0  0  0  0  0  0  0
   -3.0748  -22.5631   33.2621 N   0  0  0  0  0  0  0  0  0  0  0  0
   -3.8642  -23.8481   34.1833 C   0  0  0  0  0  0  0  0  0  0  0  0
   -5.9687  -23.9810   33.8007 C   0  0  0  0  0  0  0  0  0  0  0  0
   -7.2896  -23.1578   33.7412 O   0  0  0  0  0  0  0  0  0  0  0  0
   -6.9603  -22.1424   32.7329 C   0  0  0  0  0  0  0  0  0  0  0  0
   -4.9964  -22.4721   32.3275 C   0  0  0  0  0  0  0  0  0  0  0  0
   -6.6542  -23.5741   31.6381 C   0  0  0  0  0  0  0  0  0  0  0  0
   -7.7425  -24.6701   32.1734 C   0  0  0  0  0  0  0  0  0  0  0  0
   -8.7700  -25.0259   31.2986 C   0  0  0  0  0  0  0  0  0  0  0  0
   -8.5749  -24.4404   30.1576 N   0  0  0  0  0  0  0  0  0  0  0  0
   -7.6758  -23.4937   30.4369 N   0  0  0  0  0  0  0  0  0  0  0  0
    3.3362  -21.0110   32.8400 C   0  0  0  0  0  0  0  0  0  0  0  0
    4.3368  -19.3045   32.0590 O   0  0  0  0  0  0  0  0  0  0  0  0
    4.5450  -19.1073   30.0982 C   0  0  0  0  0  0  0  0  0  0  0  0
    4.9965  -20.0876   28.5404 C   0  0  0  0  0  0  0  0  0  0  0  0
    4.5802  -21.8094   27.7713 C   0  0  0  0  0  0  0  0  0  0  0  0
    3.5177  -22.9852   28.8711 C   0  0  0  0  0  0  0  0  0  0  0  0
    2.4877  -22.0429   30.2351 C   0  0  0  0  0  0  0  0  0  0  0  0
    3.0908  -19.8957   29.9334 C   0  0  0  0  0  0  0  0  0  0  0  0
    2.8672  -22.6506   31.6892 H   0  0  0  0  0  0  0  0  0  0  0  0
   -1.3597  -21.3154   33.4815 H   0  0  0  0  0  0  0  0  0  0  0  0
   -0.9717  -23.0924   33.7173 H   0  0  0  0  0  0  0  0  0  0  0  0
   -3.6643  -23.5480   35.2299 H   0  0  0  0  0  0  0  0  0  0  0  0
   -3.3810  -24.7732   33.9453 H   0  0  0  0  0  0  0  0  0  0  0  0
   -6.2117  -25.0618   33.6296 H   0  0  0  0  0  0  0  0  0  0  0  0
   -6.3060  -23.6110   34.7907 H   0  0  0  0  0  0  0  0  0  0  0  0
   -7.1164  -21.0517   33.0009 H   0  0  0  0  0  0  0  0  0  0  0  0
   -7.8913  -22.1392   32.1316 H   0  0  0  0  0  0  0  0  0  0  0  0
   -4.6828  -21.6493   31.6931 H   0  0  0  0  0  0  0  0  0  0  0  0
   -7.8199  -25.1449   33.1414 H   0  0  0  0  0  0  0  0  0  0  0  0
   -9.5872  -25.7176   31.4423 H   0  0  0  0  0  0  0  0  0  0  0  0
   -7.8643  -22.7738   29.7780 H   0  0  0  0  0  0  0  0  0  0  0  0
    4.0005  -21.8918   32.5584 H   0  0  0  0  0  0  0  0  0  0  0  0
    4.1218  -21.0861   33.6812 H   0  0  0  0  0  0  0  0  0  0  0  0
    5.5485  -19.5163   27.8010 H   0  0  0  0  0  0  0  0  0  0  0  0
    5.1905  -22.1949   26.9574 H   0  0  0  0  0  0  0  0  0  0  0  0
    3.7364  -24.0453   28.9192 H   0  0  0  0  0  0  0  0  0  0  0  0
    1.4474  -22.5744   29.7180 H   0  0  0  0  0  0  0  0  0  0  0  0
  1  2  2  0
  2  3  1  0
  3  4  1  0
  4  5  1  0
  5  6  1  0
  6  7  1  0
  7  8  1  0
  8  9  1  0
  9 10  1  0
 10 11  2  0
 11 12  1  0
 12 13  2  0
 13 14  1  0
  2 15  1  0
 15 16  1  0
 16 17  1  0
 17 18  2  0
 18 19  1  0
 19 20  2  0
 20 21  1  0
 21 22  2  0
 22  1  1  0
  9  4  1  0
 14 10  1  0
 22 17  1  0
  1 23  1  0
  3 24  1  0
  3 25  1  0
  5 26  1  0
  5 27  1  0
  6 28  1  0
  6 29  1  0
  8 30  1  0
  8 31  1  0
  9 32  1  0
 11 33  1  0
 12 34  1  0
 14 35  1  0
 15 36  1  0
 15 37  1  0
 18 38  1  0
 19 39  1  0
 20 40  1  0
 21 41  1  0
M  END
>  <Energy>  (153) 
3384.3999917930478

>  <compound_id>  (153) 
9289

>  <target_id>  (153) 
1

>  <reference_id>  (153) 
96

>  <inspiration_ids>  (153) 
[89, 96]

>  <energy_score>  (153) 
3263.223379121315

>  <distance_score>  (153) 
3.4745606365319888

>  <path>  (153) 
/opt/xchem-fragalysis-2/maxwin/BulkDock/SCRATCH/511020/C9289-P96/C9289-P96.minimised.mol

>  <scratch_subdir>  (153) 
/opt/xchem-fragalysis-2/maxwin/BulkDock/SCRATCH/511020/C9289-P96

>  <fragmenstein_runtime>  (153) 
15.058278560638428

>  <fragmenstein_outcome>  (153) 
too moved

>  <fragmenstein_mode>  (153) 
expansion

>  <fragmenstein_error>  (153) 


$$$$
C9290-P96
     RDKit          3D

 42 45  0  0  0  0  0  0  0  0999 V2000
   -1.2568  -22.5973   33.8052 O   0  0  0  0  0  0  0  0  0  0  0  0
   -1.1269  -21.9328   32.8107 C   0  0  0  0  0  0  0  0  0  0  0  0
    0.9679  -21.4805   32.2116 C   0  0  0  0  0  0  0  0  0  0  0  0
    2.1901  -21.5173   30.8571 C   0  0  0  0  0  0  0  0  0  0  0  0
    3.1258  -19.5496   29.8860 C   0  0  0  0  0  0  0  0  0  0  0  0
    4.2294  -19.7152   28.6802 C   0  0  0  0  0  0  0  0  0  0  0  0
    5.1747  -19.0791   29.1096 C   0  0  0  0  0  0  0  0  0  0  0  0
    5.1270  -18.2155   30.4308 C   0  0  0  0  0  0  0  0  0  0  0  0
    4.1866  -17.8045   31.3592 C   0  0  0  0  0  0  0  0  0  0  0  0
    2.9783  -18.1345   31.0083 C   0  0  0  0  0  0  0  0  0  0  0  0
    2.1579  -18.2051   32.6065 O   0  0  0  0  0  0  0  0  0  0  0  0
    1.2120  -19.7727   33.2141 C   0  0  0  0  0  0  0  0  0  0  0  0
   -2.7852  -21.4806   31.8949 N   0  0  0  0  0  0  0  0  0  0  0  0
   -3.9348  -19.9866   32.0889 C   0  0  0  0  0  0  0  0  0  0  0  0
   -6.0458  -19.6827   32.0404 C   0  0  0  0  0  0  0  0  0  0  0  0
   -7.1224  -21.1966   32.7247 C   0  0  0  0  0  0  0  0  0  0  0  0
   -8.7098  -21.8254   32.5494 C   0  0  0  0  0  0  0  0  0  0  0  0
   -9.1463  -23.1464   32.5386 C   0  0  0  0  0  0  0  0  0  0  0  0
  -10.5109  -23.0990   32.2113 C   0  0  0  0  0  0  0  0  0  0  0  0
  -10.9534  -21.8530   32.0748 N   0  0  0  0  0  0  0  0  0  0  0  0
   -9.8761  -21.0981   32.3576 N   0  0  0  0  0  0  0  0  0  0  0  0
   -6.2077  -22.7770   32.5827 C   0  0  0  0  0  0  0  0  0  0  0  0
   -4.5162  -21.9946   32.2016 C   0  0  0  0  0  0  0  0  0  0  0  0
    2.0554  -22.4784   30.2767 H   0  0  0  0  0  0  0  0  0  0  0  0
    4.3218  -20.2994   27.7534 H   0  0  0  0  0  0  0  0  0  0  0  0
    5.8164  -18.8841   28.2515 H   0  0  0  0  0  0  0  0  0  0  0  0
    5.6889  -17.3292   30.0100 H   0  0  0  0  0  0  0  0  0  0  0  0
    4.4247  -17.5736   32.3403 H   0  0  0  0  0  0  0  0  0  0  0  0
    1.5634  -19.8399   34.1804 H   0  0  0  0  0  0  0  0  0  0  0  0
    0.2720  -19.3043   33.5341 H   0  0  0  0  0  0  0  0  0  0  0  0
   -3.4424  -20.1652   31.0215 H   0  0  0  0  0  0  0  0  0  0  0  0
   -4.0389  -18.9012   31.8734 H   0  0  0  0  0  0  0  0  0  0  0  0
   -6.0401  -18.9957   31.2837 H   0  0  0  0  0  0  0  0  0  0  0  0
   -6.2194  -18.9577   32.8714 H   0  0  0  0  0  0  0  0  0  0  0  0
   -7.3780  -20.6704   33.6492 H   0  0  0  0  0  0  0  0  0  0  0  0
   -8.5609  -24.0417   32.6922 H   0  0  0  0  0  0  0  0  0  0  0  0
  -11.1983  -23.9203   32.0642 H   0  0  0  0  0  0  0  0  0  0  0  0
   -9.9894  -20.0932   32.2898 H   0  0  0  0  0  0  0  0  0  0  0  0
   -6.4335  -23.4691   33.4173 H   0  0  0  0  0  0  0  0  0  0  0  0
   -6.6614  -23.3464   31.7499 H   0  0  0  0  0  0  0  0  0  0  0  0
   -4.0126  -22.6880   32.8517 H   0  0  0  0  0  0  0  0  0  0  0  0
   -4.6946  -21.7392   31.2208 H   0  0  0  0  0  0  0  0  0  0  0  0
  1  2  2  0
  2  3  1  0
  3  4  2  0
  4  5  1  0
  5  6  2  0
  6  7  1  0
  7  8  2  0
  8  9  1  0
  9 10  2  0
 10 11  1  0
 11 12  1  0
  2 13  1  0
 13 14  1  0
 14 15  1  0
 15 16  1  0
 16 17  1  0
 17 18  2  0
 18 19  1  0
 19 20  2  0
 20 21  1  0
 16 22  1  0
 22 23  1  0
 12  3  1  0
 23 13  1  0
 10  5  1  0
 21 17  1  0
  4 24  1  0
  6 25  1  0
  7 26  1  0
  8 27  1  0
  9 28  1  0
 12 29  1  0
 12 30  1  0
 14 31  1  0
 14 32  1  0
 15 33  1  0
 15 34  1  0
 16 35  1  0
 18 36  1  0
 19 37  1  0
 21 38  1  0
 22 39  1  0
 22 40  1  0
 23 41  1  0
 23 42  1  0
M  END
>  <Energy>  (154) 
1766.8542262455637

>  <compound_id>  (154) 
9290

>  <target_id>  (154) 
1

>  <reference_id>  (154) 
96

>  <inspiration_ids>  (154) 
[89, 96]

>  <energy_score>  (154) 
1701.1809328192362

>  <distance_score>  (154) 
4.605138770912506

>  <path>  (154) 
/opt/xchem-fragalysis-2/maxwin/BulkDock/SCRATCH/511020/C9290-P96/C9290-P96.minimised.mol

>  <scratch_subdir>  (154) 
/opt/xchem-fragalysis-2/maxwin/BulkDock/SCRATCH/511020/C9290-P96

>  <fragmenstein_runtime>  (154) 
32.374064445495605

>  <fragmenstein_outcome>  (154) 
too moved

>  <fragmenstein_mode>  (154) 
expansion

>  <fragmenstein_error>  (154) 


$$$$
C9291-P96
     RDKit          3D

 42 45  0  0  0  0  0  0  0  0999 V2000
   -2.3299  -20.9992   33.7935 O   0  0  0  0  0  0  0  0  0  0  0  0
   -2.1364  -21.9849   33.1839 C   0  0  0  0  0  0  0  0  0  0  0  0
   -0.0011  -22.1369   32.7943 C   0  0  0  0  0  0  0  0  0  0  0  0
    1.5431  -23.0464   32.1047 C   0  0  0  0  0  0  0  0  0  0  0  0
    3.3462  -23.1519   31.1679 C   0  0  0  0  0  0  0  0  0  0  0  0
    4.3588  -23.9299   30.0051 C   0  0  0  0  0  0  0  0  0  0  0  0
    6.0024  -23.4984   29.2230 C   0  0  0  0  0  0  0  0  0  0  0  0
    6.8182  -21.8057   29.1643 C   0  0  0  0  0  0  0  0  0  0  0  0
    5.6770  -20.6241   30.3541 C   0  0  0  0  0  0  0  0  0  0  0  0
    4.7832  -22.1555   31.4255 C   0  0  0  0  0  0  0  0  0  0  0  0
    3.4718  -21.6535   32.6410 O   0  0  0  0  0  0  0  0  0  0  0  0
    1.5674  -21.3303   32.5924 C   0  0  0  0  0  0  0  0  0  0  0  0
   -3.9413  -22.8792   32.6960 N   0  0  0  0  0  0  0  0  0  0  0  0
   -5.8056  -22.4209   32.8810 C   0  0  0  0  0  0  0  0  0  0  0  0
   -7.6358  -22.2609   33.0059 C   0  0  0  0  0  0  0  0  0  0  0  0
   -8.3622  -22.8898   31.9657 C   0  0  0  0  0  0  0  0  0  0  0  0
   -7.2313  -23.3084   31.0178 C   0  0  0  0  0  0  0  0  0  0  0  0
   -8.1675  -23.7630   29.7475 C   0  0  0  0  0  0  0  0  0  0  0  0
   -8.2591  -24.9713   29.0905 C   0  0  0  0  0  0  0  0  0  0  0  0
   -9.4802  -25.0160   28.4039 C   0  0  0  0  0  0  0  0  0  0  0  0
  -10.1609  -23.8956   28.5686 N   0  0  0  0  0  0  0  0  0  0  0  0
   -9.3801  -23.1711   29.3792 N   0  0  0  0  0  0  0  0  0  0  0  0
   -5.1875  -22.7132   31.1115 C   0  0  0  0  0  0  0  0  0  0  0  0
    1.4424  -24.0822   31.6977 H   0  0  0  0  0  0  0  0  0  0  0  0
    3.9411  -24.8467   29.5693 H   0  0  0  0  0  0  0  0  0  0  0  0
    6.2721  -24.1605   28.3880 H   0  0  0  0  0  0  0  0  0  0  0  0
    6.6899  -21.7511   28.0339 H   0  0  0  0  0  0  0  0  0  0  0  0
    5.2474  -19.7349   29.8128 H   0  0  0  0  0  0  0  0  0  0  0  0
    1.4051  -21.4035   31.5382 H   0  0  0  0  0  0  0  0  0  0  0  0
    1.3751  -20.3872   33.1573 H   0  0  0  0  0  0  0  0  0  0  0  0
   -6.1979  -23.3697   33.7054 H   0  0  0  0  0  0  0  0  0  0  0  0
   -6.1550  -23.4648   32.7388 H   0  0  0  0  0  0  0  0  0  0  0  0
   -7.8634  -21.1991   33.1111 H   0  0  0  0  0  0  0  0  0  0  0  0
   -7.9919  -22.7184   33.9530 H   0  0  0  0  0  0  0  0  0  0  0  0
   -8.9078  -23.7693   32.3535 H   0  0  0  0  0  0  0  0  0  0  0  0
   -9.1824  -22.2523   31.6409 H   0  0  0  0  0  0  0  0  0  0  0  0
   -7.2798  -24.2745   31.5600 H   0  0  0  0  0  0  0  0  0  0  0  0
   -7.4939  -25.7117   29.0824 H   0  0  0  0  0  0  0  0  0  0  0  0
   -9.8879  -25.7964   27.7757 H   0  0  0  0  0  0  0  0  0  0  0  0
   -9.8149  -22.3211   29.7096 H   0  0  0  0  0  0  0  0  0  0  0  0
   -5.7711  -23.5039   31.3538 H   0  0  0  0  0  0  0  0  0  0  0  0
   -4.9123  -22.5577   29.9430 H   0  0  0  0  0  0  0  0  0  0  0  0
  1  2  2  0
  2  3  1  0
  3  4  2  0
  4  5  1  0
  5  6  2  0
  6  7  1  0
  7  8  2  0
  8  9  1  0
  9 10  2  0
 10 11  1  0
 11 12  1  0
  2 13  1  0
 13 14  1  0
 14 15  1  0
 15 16  1  0
 16 17  1  0
 17 18  1  0
 18 19  2  0
 19 20  1  0
 20 21  2  0
 21 22  1  0
 17 23  1  0
 12  3  1  0
 23 13  1  0
 10  5  1  0
 22 18  1  0
  4 24  1  0
  6 25  1  0
  7 26  1  0
  8 27  1  0
  9 28  1  0
 12 29  1  0
 12 30  1  0
 14 31  1  0
 14 32  1  0
 15 33  1  0
 15 34  1  0
 16 35  1  0
 16 36  1  0
 17 37  1  0
 19 38  1  0
 20 39  1  0
 22 40  1  0
 23 41  1  0
 23 42  1  0
M  END
>  <Energy>  (155) 
2421.6658235916989

>  <compound_id>  (155) 
9291

>  <target_id>  (155) 
1

>  <reference_id>  (155) 
96

>  <inspiration_ids>  (155) 
[89, 96]

>  <energy_score>  (155) 
2343.560383720181

>  <distance_score>  (155) 
3.330211047044689

>  <path>  (155) 
/opt/xchem-fragalysis-2/maxwin/BulkDock/SCRATCH/511020/C9291-P96/C9291-P96.minimised.mol

>  <scratch_subdir>  (155) 
/opt/xchem-fragalysis-2/maxwin/BulkDock/SCRATCH/511020/C9291-P96

>  <fragmenstein_runtime>  (155) 
14.046141862869263

>  <fragmenstein_outcome>  (155) 
too moved

>  <fragmenstein_mode>  (155) 
expansion

>  <fragmenstein_error>  (155) 


$$$$
C9290-P96
     RDKit          3D

 42 45  0  0  0  0  0  0  0  0999 V2000
   -1.2568  -22.5973   33.8052 O   0  0  0  0  0  0  0  0  0  0  0  0
   -1.1269  -21.9328   32.8107 C   0  0  0  0  0  0  0  0  0  0  0  0
    0.9679  -21.4805   32.2116 C   0  0  0  0  0  0  0  0  0  0  0  0
    2.1901  -21.5173   30.8571 C   0  0  0  0  0  0  0  0  0  0  0  0
    3.1258  -19.5496   29.8860 C   0  0  0  0  0  0  0  0  0  0  0  0
    4.2294  -19.7152   28.6802 C   0  0  0  0  0  0  0  0  0  0  0  0
    5.1747  -19.0791   29.1096 C   0  0  0  0  0  0  0  0  0  0  0  0
    5.1270  -18.2155   30.4308 C   0  0  0  0  0  0  0  0  0  0  0  0
    4.1866  -17.8045   31.3592 C   0  0  0  0  0  0  0  0  0  0  0  0
    2.9783  -18.1345   31.0083 C   0  0  0  0  0  0  0  0  0  0  0  0
    2.1579  -18.2051   32.6065 O   0  0  0  0  0  0  0  0  0  0  0  0
    1.2120  -19.7727   33.2141 C   0  0  0  0  0  0  0  0  0  0  0  0
   -2.7852  -21.4806   31.8949 N   0  0  0  0  0  0  0  0  0  0  0  0
   -3.9348  -19.9866   32.0889 C   0  0  0  0  0  0  0  0  0  0  0  0
   -6.0458  -19.6827   32.0404 C   0  0  0  0  0  0  0  0  0  0  0  0
   -7.1224  -21.1966   32.7247 C   0  0  0  0  0  0  0  0  0  0  0  0
   -8.7098  -21.8254   32.5494 C   0  0  0  0  0  0  0  0  0  0  0  0
   -9.1463  -23.1464   32.5386 C   0  0  0  0  0  0  0  0  0  0  0  0
  -10.5109  -23.0990   32.2113 C   0  0  0  0  0  0  0  0  0  0  0  0
  -10.9534  -21.8530   32.0748 N   0  0  0  0  0  0  0  0  0  0  0  0
   -9.8761  -21.0981   32.3576 N   0  0  0  0  0  0  0  0  0  0  0  0
   -6.2077  -22.7770   32.5827 C   0  0  0  0  0  0  0  0  0  0  0  0
   -4.5162  -21.9946   32.2016 C   0  0  0  0  0  0  0  0  0  0  0  0
    2.0554  -22.4784   30.2767 H   0  0  0  0  0  0  0  0  0  0  0  0
    4.3218  -20.2994   27.7534 H   0  0  0  0  0  0  0  0  0  0  0  0
    5.8164  -18.8841   28.2515 H   0  0  0  0  0  0  0  0  0  0  0  0
    5.6889  -17.3292   30.0100 H   0  0  0  0  0  0  0  0  0  0  0  0
    4.4247  -17.5736   32.3403 H   0  0  0  0  0  0  0  0  0  0  0  0
    1.5634  -19.8399   34.1804 H   0  0  0  0  0  0  0  0  0  0  0  0
    0.2720  -19.3043   33.5341 H   0  0  0  0  0  0  0  0  0  0  0  0
   -3.4424  -20.1652   31.0215 H   0  0  0  0  0  0  0  0  0  0  0  0
   -4.0389  -18.9012   31.8734 H   0  0  0  0  0  0  0  0  0  0  0  0
   -6.0401  -18.9957   31.2837 H   0  0  0  0  0  0  0  0  0  0  0  0
   -6.2194  -18.9577   32.8714 H   0  0  0  0  0  0  0  0  0  0  0  0
   -7.3780  -20.6704   33.6492 H   0  0  0  0  0  0  0  0  0  0  0  0
   -8.5609  -24.0417   32.6922 H   0  0  0  0  0  0  0  0  0  0  0  0
  -11.1983  -23.9203   32.0642 H   0  0  0  0  0  0  0  0  0  0  0  0
   -9.9894  -20.0932   32.2898 H   0  0  0  0  0  0  0  0  0  0  0  0
   -6.4335  -23.4691   33.4173 H   0  0  0  0  0  0  0  0  0  0  0  0
   -6.6614  -23.3464   31.7499 H   0  0  0  0  0  0  0  0  0  0  0  0
   -4.0126  -22.6880   32.8517 H   0  0  0  0  0  0  0  0  0  0  0  0
   -4.6946  -21.7392   31.2208 H   0  0  0  0  0  0  0  0  0  0  0  0
  1  2  2  0
  2  3  1  0
  3  4  2  0
  4  5  1  0
  5  6  2  0
  6  7  1  0
  7  8  2  0
  8  9  1  0
  9 10  2  0
 10 11  1  0
 11 12  1  0
  2 13  1  0
 13 14  1  0
 14 15  1  0
 15 16  1  0
 16 17  1  0
 17 18  2  0
 18 19  1  0
 19 20  2  0
 20 21  1  0
 16 22  1  0
 22 23  1  0
 12  3  1  0
 23 13  1  0
 10  5  1  0
 21 17  1  0
  4 24  1  0
  6 25  1  0
  7 26  1  0
  8 27  1  0
  9 28  1  0
 12 29  1  0
 12 30  1  0
 14 31  1  0
 14 32  1  0
 15 33  1  0
 15 34  1  0
 16 35  1  0
 18 36  1  0
 19 37  1  0
 21 38  1  0
 22 39  1  0
 22 40  1  0
 23 41  1  0
 23 42  1  0
M  END
>  <Energy>  (156) 
1766.8542262455637

>  <compound_id>  (156) 
9290

>  <target_id>  (156) 
1

>  <reference_id>  (156) 
96

>  <inspiration_ids>  (156) 
[89, 96]

>  <energy_score>  (156) 
1701.1809328192362

>  <distance_score>  (156) 
4.605138770912506

>  <path>  (156) 
/opt/xchem-fragalysis-2/maxwin/BulkDock/SCRATCH/511020/C9290-P96/C9290-P96.minimised.mol

>  <scratch_subdir>  (156) 
/opt/xchem-fragalysis-2/maxwin/BulkDock/SCRATCH/511020/C9290-P96

>  <fragmenstein_runtime>  (156) 
24.03213596343994

>  <fragmenstein_outcome>  (156) 
too moved

>  <fragmenstein_mode>  (156) 
expansion

>  <fragmenstein_error>  (156) 


$$$$
C9291-P96
     RDKit          3D

 42 45  0  0  0  0  0  0  0  0999 V2000
   -2.3299  -20.9992   33.7935 O   0  0  0  0  0  0  0  0  0  0  0  0
   -2.1364  -21.9849   33.1839 C   0  0  0  0  0  0  0  0  0  0  0  0
   -0.0011  -22.1369   32.7943 C   0  0  0  0  0  0  0  0  0  0  0  0
    1.5431  -23.0464   32.1047 C   0  0  0  0  0  0  0  0  0  0  0  0
    3.3462  -23.1519   31.1679 C   0  0  0  0  0  0  0  0  0  0  0  0
    4.3588  -23.9299   30.0051 C   0  0  0  0  0  0  0  0  0  0  0  0
    6.0024  -23.4984   29.2230 C   0  0  0  0  0  0  0  0  0  0  0  0
    6.8182  -21.8057   29.1643 C   0  0  0  0  0  0  0  0  0  0  0  0
    5.6770  -20.6241   30.3541 C   0  0  0  0  0  0  0  0  0  0  0  0
    4.7832  -22.1555   31.4255 C   0  0  0  0  0  0  0  0  0  0  0  0
    3.4718  -21.6535   32.6410 O   0  0  0  0  0  0  0  0  0  0  0  0
    1.5674  -21.3303   32.5924 C   0  0  0  0  0  0  0  0  0  0  0  0
   -3.9413  -22.8792   32.6960 N   0  0  0  0  0  0  0  0  0  0  0  0
   -5.8056  -22.4209   32.8810 C   0  0  0  0  0  0  0  0  0  0  0  0
   -7.6358  -22.2609   33.0059 C   0  0  0  0  0  0  0  0  0  0  0  0
   -8.3622  -22.8898   31.9657 C   0  0  0  0  0  0  0  0  0  0  0  0
   -7.2313  -23.3084   31.0178 C   0  0  0  0  0  0  0  0  0  0  0  0
   -8.1675  -23.7630   29.7475 C   0  0  0  0  0  0  0  0  0  0  0  0
   -8.2591  -24.9713   29.0905 C   0  0  0  0  0  0  0  0  0  0  0  0
   -9.4802  -25.0160   28.4039 C   0  0  0  0  0  0  0  0  0  0  0  0
  -10.1609  -23.8956   28.5686 N   0  0  0  0  0  0  0  0  0  0  0  0
   -9.3801  -23.1711   29.3792 N   0  0  0  0  0  0  0  0  0  0  0  0
   -5.1875  -22.7132   31.1115 C   0  0  0  0  0  0  0  0  0  0  0  0
    1.4424  -24.0822   31.6977 H   0  0  0  0  0  0  0  0  0  0  0  0
    3.9411  -24.8467   29.5693 H   0  0  0  0  0  0  0  0  0  0  0  0
    6.2721  -24.1605   28.3880 H   0  0  0  0  0  0  0  0  0  0  0  0
    6.6899  -21.7511   28.0339 H   0  0  0  0  0  0  0  0  0  0  0  0
    5.2474  -19.7349   29.8128 H   0  0  0  0  0  0  0  0  0  0  0  0
    1.4051  -21.4035   31.5382 H   0  0  0  0  0  0  0  0  0  0  0  0
    1.3751  -20.3872   33.1573 H   0  0  0  0  0  0  0  0  0  0  0  0
   -6.1979  -23.3697   33.7054 H   0  0  0  0  0  0  0  0  0  0  0  0
   -6.1550  -23.4648   32.7388 H   0  0  0  0  0  0  0  0  0  0  0  0
   -7.8634  -21.1991   33.1111 H   0  0  0  0  0  0  0  0  0  0  0  0
   -7.9919  -22.7184   33.9530 H   0  0  0  0  0  0  0  0  0  0  0  0
   -8.9078  -23.7693   32.3535 H   0  0  0  0  0  0  0  0  0  0  0  0
   -9.1824  -22.2523   31.6409 H   0  0  0  0  0  0  0  0  0  0  0  0
   -7.2798  -24.2745   31.5600 H   0  0  0  0  0  0  0  0  0  0  0  0
   -7.4939  -25.7117   29.0824 H   0  0  0  0  0  0  0  0  0  0  0  0
   -9.8879  -25.7964   27.7757 H   0  0  0  0  0  0  0  0  0  0  0  0
   -9.8149  -22.3211   29.7096 H   0  0  0  0  0  0  0  0  0  0  0  0
   -5.7711  -23.5039   31.3538 H   0  0  0  0  0  0  0  0  0  0  0  0
   -4.9123  -22.5577   29.9430 H   0  0  0  0  0  0  0  0  0  0  0  0
  1  2  2  0
  2  3  1  0
  3  4  2  0
  4  5  1  0
  5  6  2  0
  6  7  1  0
  7  8  2  0
  8  9  1  0
  9 10  2  0
 10 11  1  0
 11 12  1  0
  2 13  1  0
 13 14  1  0
 14 15  1  0
 15 16  1  0
 16 17  1  0
 17 18  1  0
 18 19  2  0
 19 20  1  0
 20 21  2  0
 21 22  1  0
 17 23  1  0
 12  3  1  0
 23 13  1  0
 10  5  1  0
 22 18  1  0
  4 24  1  0
  6 25  1  0
  7 26  1  0
  8 27  1  0
  9 28  1  0
 12 29  1  0
 12 30  1  0
 14 31  1  0
 14 32  1  0
 15 33  1  0
 15 34  1  0
 16 35  1  0
 16 36  1  0
 17 37  1  0
 19 38  1  0
 20 39  1  0
 22 40  1  0
 23 41  1  0
 23 42  1  0
M  END
>  <Energy>  (157) 
2421.6658235916989

>  <compound_id>  (157) 
9291

>  <target_id>  (157) 
1

>  <reference_id>  (157) 
96

>  <inspiration_ids>  (157) 
[89, 96]

>  <energy_score>  (157) 
2343.560383720181

>  <distance_score>  (157) 
3.330211047044689

>  <path>  (157) 
/opt/xchem-fragalysis-2/maxwin/BulkDock/SCRATCH/511020/C9291-P96/C9291-P96.minimised.mol

>  <scratch_subdir>  (157) 
/opt/xchem-fragalysis-2/maxwin/BulkDock/SCRATCH/511020/C9291-P96

>  <fragmenstein_runtime>  (157) 
12.87691068649292

>  <fragmenstein_outcome>  (157) 
too moved

>  <fragmenstein_mode>  (157) 
expansion

>  <fragmenstein_error>  (157) 


$$$$
C27391-P96
     RDKit          3D

 39 41  0  0  0  0  0  0  0  0999 V2000
    5.9788  -22.9272   23.9037 C   0  0  0  0  0  0  0  0  0  0  0  0
    6.4266  -22.0161   24.8946 O   0  0  0  0  0  0  0  0  0  0  0  0
    5.4780  -21.4354   25.6744 C   0  0  0  0  0  0  0  0  0  0  0  0
    4.1600  -21.5202   25.5542 C   0  0  0  0  0  0  0  0  0  0  0  0
    3.3611  -20.8032   26.4448 C   0  0  0  0  0  0  0  0  0  0  0  0
    3.7992  -20.0686   27.6257 C   0  0  0  0  0  0  0  0  0  0  0  0
    5.0977  -20.0715   27.7652 C   0  0  0  0  0  0  0  0  0  0  0  0
    5.8804  -20.7154   26.7749 C   0  0  0  0  0  0  0  0  0  0  0  0
    5.1921  -19.5160   29.0252 O   0  0  0  0  0  0  0  0  0  0  0  0
    3.5858  -19.3723   29.9599 C   0  0  0  0  0  0  0  0  0  0  0  0
    2.4624  -21.3168   30.5408 C   0  0  0  0  0  0  0  0  0  0  0  0
    1.2146  -22.2078   29.2694 C   0  0  0  0  0  0  0  0  0  0  0  0
    1.7601  -23.1649   28.8142 O   0  0  0  0  0  0  0  0  0  0  0  0
   -0.4764  -21.3969   28.8096 N   0  0  0  0  0  0  0  0  0  0  0  0
   -0.3377  -20.3301   27.7687 C   0  0  0  0  0  0  0  0  0  0  0  0
   -1.8342  -22.0441   27.5229 C   0  0  0  0  0  0  0  0  0  0  0  0
   -3.8310  -21.9570   27.2879 C   0  0  0  0  0  0  0  0  0  0  0  0
   -5.0205  -22.4288   25.9404 C   0  0  0  0  0  0  0  0  0  0  0  0
   -6.0321  -21.5992   25.7157 N   0  0  0  0  0  0  0  0  0  0  0  0
   -5.7864  -20.6848   26.6299 N   0  0  0  0  0  0  0  0  0  0  0  0
   -4.9491  -21.2034   27.5843 C   0  0  0  0  0  0  0  0  0  0  0  0
    3.1398  -19.6178   29.5150 C   0  0  0  0  0  0  0  0  0  0  0  0
    6.8481  -23.2441   23.3196 H   0  0  0  0  0  0  0  0  0  0  0  0
    5.2757  -22.4655   23.2106 H   0  0  0  0  0  0  0  0  0  0  0  0
    5.5508  -23.8213   24.3598 H   0  0  0  0  0  0  0  0  0  0  0  0
    3.7472  -22.2428   24.8798 H   0  0  0  0  0  0  0  0  0  0  0  0
    2.3655  -21.2480   26.4611 H   0  0  0  0  0  0  0  0  0  0  0  0
    6.9293  -20.6769   26.6970 H   0  0  0  0  0  0  0  0  0  0  0  0
    4.4832  -18.9212   30.8106 H   0  0  0  0  0  0  0  0  0  0  0  0
    3.1869  -18.1824   30.5695 H   0  0  0  0  0  0  0  0  0  0  0  0
   -0.8437  -19.3873   27.4977 H   0  0  0  0  0  0  0  0  0  0  0  0
    0.6693  -20.3030   27.2705 H   0  0  0  0  0  0  0  0  0  0  0  0
   -0.3527  -19.5219   28.5753 H   0  0  0  0  0  0  0  0  0  0  0  0
   -1.2390  -21.8689   26.6637 H   0  0  0  0  0  0  0  0  0  0  0  0
   -1.8475  -23.1983   27.3852 H   0  0  0  0  0  0  0  0  0  0  0  0
   -4.7491  -23.0992   25.1128 H   0  0  0  0  0  0  0  0  0  0  0  0
   -6.5270  -20.0327   26.8407 H   0  0  0  0  0  0  0  0  0  0  0  0
   -5.6889  -21.6638   28.1875 H   0  0  0  0  0  0  0  0  0  0  0  0
    2.2816  -18.7807   28.9709 H   0  0  0  0  0  0  0  0  0  0  0  0
  1  2  1  0
  2  3  1  0
  3  4  2  0
  4  5  1  0
  5  6  2  0
  6  7  1  0
  7  8  2  0
  7  9  1  0
  9 10  1  0
 10 11  1  0
 11 12  1  0
 12 13  2  0
 12 14  1  0
 14 15  1  0
 14 16  1  0
 16 17  1  0
 17 18  1  0
 18 19  2  0
 19 20  1  0
 20 21  1  0
 11 22  2  0
  8  3  1  0
 21 17  2  0
 22  6  1  0
  1 23  1  0
  1 24  1  0
  1 25  1  0
  4 26  1  0
  5 27  1  0
  8 28  1  0
 10 29  1  0
 10 30  1  0
 15 31  1  0
 15 32  1  0
 15 33  1  0
 16 34  1  0
 16 35  1  0
 18 36  1  0
 20 37  1  0
 21 38  1  0
 22 39  1  0
M  END
>  <Energy>  (158) 
1708.2115704411983

>  <compound_id>  (158) 
27391

>  <target_id>  (158) 
1

>  <reference_id>  (158) 
96

>  <inspiration_ids>  (158) 
[89, 96]

>  <energy_score>  (158) 
1659.293694801268

>  <distance_score>  (158) 
4.566260231858642

>  <path>  (158) 
/opt/xchem-fragalysis-2/maxwin/BulkDock/SCRATCH/511020/C27391-P96/C27391-P96.minimised.mol

>  <scratch_subdir>  (158) 
/opt/xchem-fragalysis-2/maxwin/BulkDock/SCRATCH/511020/C27391-P96

>  <fragmenstein_runtime>  (158) 
18.22838807106018

>  <fragmenstein_outcome>  (158) 
too moved

>  <fragmenstein_mode>  (158) 
expansion

>  <fragmenstein_error>  (158) 


$$$$
C46647-P96
     RDKit          3D

 38 41  0  0  0  0  0  0  0  0999 V2000
   -1.1357  -22.9621   33.7704 O   0  0  0  0  0  0  0  0  0  0  0  0
   -0.8649  -22.0241   32.9763 C   0  0  0  0  0  0  0  0  0  0  0  0
   -2.4123  -21.5641   32.0124 O   0  0  0  0  0  0  0  0  0  0  0  0
   -3.5175  -21.4135   30.3538 C   0  0  0  0  0  0  0  0  0  0  0  0
   -5.0569  -22.4963   29.3464 C   0  0  0  0  0  0  0  0  0  0  0  0
   -5.4844  -21.7502   27.9925 N   0  0  0  0  0  0  0  0  0  0  0  0
   -6.9839  -21.4873   27.9018 N   0  0  0  0  0  0  0  0  0  0  0  0
   -7.9623  -22.4043   28.6659 C   0  0  0  0  0  0  0  0  0  0  0  0
   -6.9170  -23.4660   29.4312 C   0  0  0  0  0  0  0  0  0  0  0  0
   -8.0062  -24.0526   30.4434 C   0  0  0  0  0  0  0  0  0  0  0  0
   -9.4313  -23.4642   30.1015 C   0  0  0  0  0  0  0  0  0  0  0  0
   -9.3979  -22.6904   28.7589 C   0  0  0  0  0  0  0  0  0  0  0  0
    1.2072  -21.3187   32.8071 C   0  0  0  0  0  0  0  0  0  0  0  0
    3.0503  -21.1522   32.7545 C   0  0  0  0  0  0  0  0  0  0  0  0
    4.0956  -19.2724   32.5618 C   0  0  0  0  0  0  0  0  0  0  0  0
    5.1488  -18.9486   31.7542 C   0  0  0  0  0  0  0  0  0  0  0  0
    4.8536  -18.4710   30.6052 C   0  0  0  0  0  0  0  0  0  0  0  0
    4.4442  -17.3145   30.9157 C   0  0  0  0  0  0  0  0  0  0  0  0
    3.2654  -17.5196   31.3723 C   0  0  0  0  0  0  0  0  0  0  0  0
    3.2279  -18.0637   32.6143 C   0  0  0  0  0  0  0  0  0  0  0  0
    1.8936  -18.2698   33.0785 O   0  0  0  0  0  0  0  0  0  0  0  0
    1.0759  -19.7203   33.5321 C   0  0  0  0  0  0  0  0  0  0  0  0
   -2.9027  -21.8585   29.6350 H   0  0  0  0  0  0  0  0  0  0  0  0
   -3.3067  -20.3720   30.1565 H   0  0  0  0  0  0  0  0  0  0  0  0
   -7.2073  -20.6892   27.3335 H   0  0  0  0  0  0  0  0  0  0  0  0
   -7.7532  -23.8333   31.4853 H   0  0  0  0  0  0  0  0  0  0  0  0
   -8.1343  -25.1245   30.2628 H   0  0  0  0  0  0  0  0  0  0  0  0
   -9.7453  -22.8041   30.9199 H   0  0  0  0  0  0  0  0  0  0  0  0
  -10.1827  -24.2622   30.0683 H   0  0  0  0  0  0  0  0  0  0  0  0
   -9.7096  -23.3431   27.9377 H   0  0  0  0  0  0  0  0  0  0  0  0
  -10.0417  -21.8078   28.7699 H   0  0  0  0  0  0  0  0  0  0  0  0
    3.8445  -21.9169   32.6736 H   0  0  0  0  0  0  0  0  0  0  0  0
    5.7432  -19.7049   31.3362 H   0  0  0  0  0  0  0  0  0  0  0  0
    4.9900  -18.9577   29.6541 H   0  0  0  0  0  0  0  0  0  0  0  0
    4.8358  -16.6077   30.1693 H   0  0  0  0  0  0  0  0  0  0  0  0
    2.4748  -17.6196   30.6119 H   0  0  0  0  0  0  0  0  0  0  0  0
    1.1370  -20.0570   34.5252 H   0  0  0  0  0  0  0  0  0  0  0  0
    0.0983  -19.2909   33.6319 H   0  0  0  0  0  0  0  0  0  0  0  0
  1  2  2  0
  2  3  1  0
  3  4  1  0
  4  5  1  0
  5  6  2  0
  6  7  1  0
  7  8  1  0
  8  9  2  0
  9 10  1  0
 10 11  1  0
 11 12  1  0
  2 13  1  0
 13 14  2  0
 14 15  1  0
 15 16  2  0
 16 17  1  0
 17 18  2  0
 18 19  1  0
 19 20  2  0
 20 21  1  0
 21 22  1  0
  9  5  1  0
 22 13  1  0
 12  8  1  0
 20 15  1  0
  4 23  1  0
  4 24  1  0
  7 25  1  0
 10 26  1  0
 10 27  1  0
 11 28  1  0
 11 29  1  0
 12 30  1  0
 12 31  1  0
 14 32  1  0
 16 33  1  0
 17 34  1  0
 18 35  1  0
 19 36  1  0
 22 37  1  0
 22 38  1  0
M  END
>  <Energy>  (159) 
1374.9943938632828

>  <compound_id>  (159) 
46647

>  <target_id>  (159) 
1

>  <reference_id>  (159) 
96

>  <inspiration_ids>  (159) 
[89, 96]

>  <energy_score>  (159) 
1284.9347180428495

>  <distance_score>  (159) 
4.576833689642672

>  <path>  (159) 
/opt/xchem-fragalysis-2/maxwin/BulkDock/SCRATCH/511020/C46647-P96/C46647-P96.minimised.mol

>  <scratch_subdir>  (159) 
/opt/xchem-fragalysis-2/maxwin/BulkDock/SCRATCH/511020/C46647-P96

>  <fragmenstein_runtime>  (159) 
15.491090297698975

>  <fragmenstein_outcome>  (159) 
too moved

>  <fragmenstein_mode>  (159) 
expansion

>  <fragmenstein_error>  (159) 


$$$$
C46648-P96
     RDKit          3D

 42 45  0  0  0  0  0  0  0  0999 V2000
    5.3425  -24.9010   22.8609 C   0  0  0  0  0  0  0  0  0  0  0  0
    5.8902  -23.6113   23.0138 O   0  0  0  0  0  0  0  0  0  0  0  0
    5.4247  -22.8485   24.0379 C   0  0  0  0  0  0  0  0  0  0  0  0
    6.2509  -21.8274   24.3718 C   0  0  0  0  0  0  0  0  0  0  0  0
    5.8121  -20.8539   25.2290 C   0  0  0  0  0  0  0  0  0  0  0  0
    4.5357  -20.9094   25.7610 C   0  0  0  0  0  0  0  0  0  0  0  0
    3.6547  -21.9057   25.5703 C   0  0  0  0  0  0  0  0  0  0  0  0
    4.1464  -22.8256   24.5918 C   0  0  0  0  0  0  0  0  0  0  0  0
    2.0393  -21.6575   26.1417 C   0  0  0  0  0  0  0  0  0  0  0  0
    1.3673  -20.9346   27.0566 C   0  0  0  0  0  0  0  0  0  0  0  0
   -0.4798  -20.7497   27.7817 C   0  0  0  0  0  0  0  0  0  0  0  0
   -0.6160  -19.6412   28.3761 O   0  0  0  0  0  0  0  0  0  0  0  0
   -1.8789  -21.8752   27.5399 O   0  0  0  0  0  0  0  0  0  0  0  0
   -3.7770  -21.8573   28.1614 C   0  0  0  0  0  0  0  0  0  0  0  0
   -5.7743  -22.2505   28.2909 C   0  0  0  0  0  0  0  0  0  0  0  0
   -6.7255  -21.4034   27.6789 N   0  0  0  0  0  0  0  0  0  0  0  0
   -8.0784  -21.7659   28.1902 N   0  0  0  0  0  0  0  0  0  0  0  0
   -8.4134  -22.9709   28.7812 C   0  0  0  0  0  0  0  0  0  0  0  0
   -7.1412  -23.4520   29.2922 C   0  0  0  0  0  0  0  0  0  0  0  0
   -7.8092  -23.6902   30.8520 C   0  0  0  0  0  0  0  0  0  0  0  0
   -9.2094  -24.2730   30.5294 C   0  0  0  0  0  0  0  0  0  0  0  0
   -9.7020  -23.3980   29.3714 C   0  0  0  0  0  0  0  0  0  0  0  0
    2.9141  -19.9915   27.1206 C   0  0  0  0  0  0  0  0  0  0  0  0
    3.9872  -19.7882   26.1932 O   0  0  0  0  0  0  0  0  0  0  0  0
    4.3135  -24.8496   22.4975 H   0  0  0  0  0  0  0  0  0  0  0  0
    5.9254  -25.4213   22.0940 H   0  0  0  0  0  0  0  0  0  0  0  0
    5.4374  -25.4806   23.7821 H   0  0  0  0  0  0  0  0  0  0  0  0
    7.0990  -21.6318   23.7442 H   0  0  0  0  0  0  0  0  0  0  0  0
    6.3640  -19.9355   25.2230 H   0  0  0  0  0  0  0  0  0  0  0  0
    3.4369  -23.4229   24.0376 H   0  0  0  0  0  0  0  0  0  0  0  0
    1.2963  -21.9855   25.3546 H   0  0  0  0  0  0  0  0  0  0  0  0
   -3.5622  -22.5426   28.9481 H   0  0  0  0  0  0  0  0  0  0  0  0
   -3.9774  -22.0984   27.1403 H   0  0  0  0  0  0  0  0  0  0  0  0
   -8.7440  -21.0165   28.2673 H   0  0  0  0  0  0  0  0  0  0  0  0
   -8.0245  -22.7480   31.3516 H   0  0  0  0  0  0  0  0  0  0  0  0
   -7.3353  -24.2330   31.6572 H   0  0  0  0  0  0  0  0  0  0  0  0
   -9.1139  -25.3142   30.2053 H   0  0  0  0  0  0  0  0  0  0  0  0
   -9.8862  -24.2383   31.3884 H   0  0  0  0  0  0  0  0  0  0  0  0
  -10.3086  -23.9728   28.6665 H   0  0  0  0  0  0  0  0  0  0  0  0
  -10.2893  -22.5501   29.7359 H   0  0  0  0  0  0  0  0  0  0  0  0
    3.8048  -20.2797   27.7016 H   0  0  0  0  0  0  0  0  0  0  0  0
    2.6397  -19.3637   27.9208 H   0  0  0  0  0  0  0  0  0  0  0  0
  1  2  1  0
  2  3  1  0
  3  4  2  0
  4  5  1  0
  5  6  2  0
  6  7  1  0
  7  8  2  0
  7  9  1  0
  9 10  2  0
 10 11  1  0
 11 12  2  0
 11 13  1  0
 13 14  1  0
 14 15  1  0
 15 16  2  0
 16 17  1  0
 17 18  1  0
 18 19  2  0
 19 20  1  0
 20 21  1  0
 21 22  1  0
 10 23  1  0
 23 24  1  0
  8  3  1  0
 19 15  1  0
 24  6  1  0
 22 18  1  0
  1 25  1  0
  1 26  1  0
  1 27  1  0
  4 28  1  0
  5 29  1  0
  8 30  1  0
  9 31  1  0
 14 32  1  0
 14 33  1  0
 17 34  1  0
 20 35  1  0
 20 36  1  0
 21 37  1  0
 21 38  1  0
 22 39  1  0
 22 40  1  0
 23 41  1  0
 23 42  1  0
M  END
>  <Energy>  (160) 
813.57269622386991

>  <compound_id>  (160) 
46648

>  <target_id>  (160) 
1

>  <reference_id>  (160) 
96

>  <inspiration_ids>  (160) 
[89, 96]

>  <energy_score>  (160) 
722.6844850768596

>  <distance_score>  (160) 
4.4017710856122445

>  <path>  (160) 
/opt/xchem-fragalysis-2/maxwin/BulkDock/SCRATCH/511020/C46648-P96/C46648-P96.minimised.mol

>  <scratch_subdir>  (160) 
/opt/xchem-fragalysis-2/maxwin/BulkDock/SCRATCH/511020/C46648-P96

>  <fragmenstein_runtime>  (160) 
19.50029492378235

>  <fragmenstein_outcome>  (160) 
too moved

>  <fragmenstein_mode>  (160) 
expansion

>  <fragmenstein_error>  (160) 


$$$$
C46649-P96
     RDKit          3D

 38 41  0  0  0  0  0  0  0  0999 V2000
   -1.5348  -21.9973   27.2399 O   0  0  0  0  0  0  0  0  0  0  0  0
   -1.1262  -22.9657   26.4485 C   0  0  0  0  0  0  0  0  0  0  0  0
   -2.0086  -24.1918   26.6589 O   0  0  0  0  0  0  0  0  0  0  0  0
   -2.7497  -25.6199   27.8532 C   0  0  0  0  0  0  0  0  0  0  0  0
   -4.5163  -26.5185   27.7706 C   0  0  0  0  0  0  0  0  0  0  0  0
   -4.6015  -27.6932   26.9903 N   0  0  0  0  0  0  0  0  0  0  0  0
   -5.9615  -27.8735   26.4909 N   0  0  0  0  0  0  0  0  0  0  0  0
   -6.9811  -26.9574   26.9987 C   0  0  0  0  0  0  0  0  0  0  0  0
   -6.2343  -26.0760   27.9715 C   0  0  0  0  0  0  0  0  0  0  0  0
   -7.4764  -25.3816   28.8632 C   0  0  0  0  0  0  0  0  0  0  0  0
   -8.8223  -25.7074   28.1073 C   0  0  0  0  0  0  0  0  0  0  0  0
   -8.4952  -26.8098   27.0047 C   0  0  0  0  0  0  0  0  0  0  0  0
    0.6148  -22.3638   25.4951 C   0  0  0  0  0  0  0  0  0  0  0  0
    1.4401  -22.7991   24.3738 C   0  0  0  0  0  0  0  0  0  0  0  0
    3.3488  -22.8301   24.5661 C   0  0  0  0  0  0  0  0  0  0  0  0
    4.2167  -23.5044   23.6796 C   0  0  0  0  0  0  0  0  0  0  0  0
    5.5699  -23.5197   23.9685 C   0  0  0  0  0  0  0  0  0  0  0  0
    6.6103  -24.5356   23.0641 Cl  0  0  0  0  0  0  0  0  0  0  0  0
    6.0737  -22.8002   25.0467 C   0  0  0  0  0  0  0  0  0  0  0  0
    5.2588  -21.9548   25.7876 C   0  0  0  0  0  0  0  0  0  0  0  0
    3.9015  -21.9768   25.5361 C   0  0  0  0  0  0  0  0  0  0  0  0
    3.1038  -21.1133   26.1875 O   0  0  0  0  0  0  0  0  0  0  0  0
    1.7152  -21.5681   26.5620 C   0  0  0  0  0  0  0  0  0  0  0  0
   -2.0529  -25.8530   28.6606 H   0  0  0  0  0  0  0  0  0  0  0  0
   -2.4805  -26.5133   27.2489 H   0  0  0  0  0  0  0  0  0  0  0  0
   -6.1236  -28.6664   25.8831 H   0  0  0  0  0  0  0  0  0  0  0  0
   -7.6597  -25.8540   29.8134 H   0  0  0  0  0  0  0  0  0  0  0  0
   -7.4194  -24.3358   29.1512 H   0  0  0  0  0  0  0  0  0  0  0  0
   -9.2527  -24.7950   27.6783 H   0  0  0  0  0  0  0  0  0  0  0  0
   -9.6239  -26.0184   28.7903 H   0  0  0  0  0  0  0  0  0  0  0  0
   -8.9177  -27.8030   27.1190 H   0  0  0  0  0  0  0  0  0  0  0  0
   -8.9766  -26.4130   26.1198 H   0  0  0  0  0  0  0  0  0  0  0  0
    1.2746  -23.5282   23.5909 H   0  0  0  0  0  0  0  0  0  0  0  0
    3.8225  -24.0973   22.8660 H   0  0  0  0  0  0  0  0  0  0  0  0
    7.1032  -22.9339   25.3233 H   0  0  0  0  0  0  0  0  0  0  0  0
    5.6636  -21.3265   26.5728 H   0  0  0  0  0  0  0  0  0  0  0  0
    1.2388  -20.7209   27.0434 H   0  0  0  0  0  0  0  0  0  0  0  0
    1.9091  -22.3529   27.2767 H   0  0  0  0  0  0  0  0  0  0  0  0
  1  2  2  0
  2  3  1  0
  3  4  1  0
  4  5  1  0
  5  6  2  0
  6  7  1  0
  7  8  1  0
  8  9  2  0
  9 10  1  0
 10 11  1  0
 11 12  1  0
  2 13  1  0
 13 14  2  0
 14 15  1  0
 15 16  2  0
 16 17  1  0
 17 18  1  0
 17 19  2  0
 19 20  1  0
 20 21  2  0
 21 22  1  0
 22 23  1  0
  9  5  1  0
 23 13  1  0
 12  8  1  0
 21 15  1  0
  4 24  1  0
  4 25  1  0
  7 26  1  0
 10 27  1  0
 10 28  1  0
 11 29  1  0
 11 30  1  0
 12 31  1  0
 12 32  1  0
 14 33  1  0
 16 34  1  0
 19 35  1  0
 20 36  1  0
 23 37  1  0
 23 38  1  0
M  END
>  <Energy>  (161) 
578.40390752747282

>  <compound_id>  (161) 
46649

>  <target_id>  (161) 
1

>  <reference_id>  (161) 
96

>  <inspiration_ids>  (161) 
[89, 96]

>  <energy_score>  (161) 
479.7352502184068

>  <distance_score>  (161) 
5.9750039642621475

>  <path>  (161) 
/opt/xchem-fragalysis-2/maxwin/BulkDock/SCRATCH/511020/C46649-P96/C46649-P96.minimised.mol

>  <scratch_subdir>  (161) 
/opt/xchem-fragalysis-2/maxwin/BulkDock/SCRATCH/511020/C46649-P96

>  <fragmenstein_runtime>  (161) 
16.34215474128723

>  <fragmenstein_outcome>  (161) 
too moved

>  <fragmenstein_mode>  (161) 
expansion

>  <fragmenstein_error>  (161) 


$$$$
C27392-P96
     RDKit          3D

 35 37  0  0  0  0  0  0  0  0999 V2000
    6.0868  -23.8353   27.3515 C   0  0  0  0  0  0  0  0  0  0  0  0
    4.8332  -24.0707   27.9681 O   0  0  0  0  0  0  0  0  0  0  0  0
    4.1039  -22.9123   28.1997 C   0  0  0  0  0  0  0  0  0  0  0  0
    3.0062  -23.1501   29.6470 C   0  0  0  0  0  0  0  0  0  0  0  0
    2.4391  -21.6448   30.5581 C   0  0  0  0  0  0  0  0  0  0  0  0
    3.2084  -19.6698   29.7410 C   0  0  0  0  0  0  0  0  0  0  0  0
    4.5543  -19.6622   28.6305 C   0  0  0  0  0  0  0  0  0  0  0  0
    4.7836  -21.2311   27.7095 C   0  0  0  0  0  0  0  0  0  0  0  0
    4.7721  -18.8284   30.1983 O   0  0  0  0  0  0  0  0  0  0  0  0
    3.4054  -17.7769   30.9373 C   0  0  0  0  0  0  0  0  0  0  0  0
    1.8016  -17.5066   30.0156 C   0  0  0  0  0  0  0  0  0  0  0  0
   -0.1001  -17.3557   29.8277 C   0  0  0  0  0  0  0  0  0  0  0  0
   -0.4440  -16.2203   30.0718 O   0  0  0  0  0  0  0  0  0  0  0  0
   -1.3880  -18.8270   29.4703 O   0  0  0  0  0  0  0  0  0  0  0  0
   -3.1018  -19.9962   29.6604 C   0  0  0  0  0  0  0  0  0  0  0  0
   -4.2601  -20.6174   27.9538 C   0  0  0  0  0  0  0  0  0  0  0  0
   -4.1470  -21.8255   27.4147 C   0  0  0  0  0  0  0  0  0  0  0  0
   -5.1514  -22.0153   26.5443 N   0  0  0  0  0  0  0  0  0  0  0  0
   -6.1244  -21.4742   27.1646 N   0  0  0  0  0  0  0  0  0  0  0  0
   -5.5469  -20.3426   27.5237 C   0  0  0  0  0  0  0  0  0  0  0  0
    2.0984  -18.4543   29.2398 C   0  0  0  0  0  0  0  0  0  0  0  0
    6.5823  -24.8023   27.2210 H   0  0  0  0  0  0  0  0  0  0  0  0
    5.9791  -23.3803   26.3618 H   0  0  0  0  0  0  0  0  0  0  0  0
    6.7212  -23.2220   27.9962 H   0  0  0  0  0  0  0  0  0  0  0  0
    2.7885  -24.1369   30.0392 H   0  0  0  0  0  0  0  0  0  0  0  0
    1.7307  -21.8873   31.3786 H   0  0  0  0  0  0  0  0  0  0  0  0
    5.4810  -21.1924   26.8711 H   0  0  0  0  0  0  0  0  0  0  0  0
    4.0267  -16.9299   30.9322 H   0  0  0  0  0  0  0  0  0  0  0  0
    3.3770  -17.9773   32.0094 H   0  0  0  0  0  0  0  0  0  0  0  0
   -3.2516  -20.2602   30.7098 H   0  0  0  0  0  0  0  0  0  0  0  0
   -3.0031  -21.1822   29.7429 H   0  0  0  0  0  0  0  0  0  0  0  0
   -3.3032  -22.4893   27.5628 H   0  0  0  0  0  0  0  0  0  0  0  0
   -7.0763  -21.6575   26.8880 H   0  0  0  0  0  0  0  0  0  0  0  0
   -6.2750  -19.5646   27.5004 H   0  0  0  0  0  0  0  0  0  0  0  0
    1.0850  -18.7265   28.9689 H   0  0  0  0  0  0  0  0  0  0  0  0
  1  2  1  0
  2  3  1  0
  3  4  2  0
  4  5  1  0
  5  6  2  0
  6  7  1  0
  7  8  2  0
  7  9  1  0
  9 10  1  0
 10 11  1  0
 11 12  1  0
 12 13  2  0
 12 14  1  0
 14 15  1  0
 15 16  1  0
 16 17  1  0
 17 18  2  0
 18 19  1  0
 19 20  1  0
 11 21  2  0
  8  3  1  0
 20 16  2  0
 21  6  1  0
  1 22  1  0
  1 23  1  0
  1 24  1  0
  4 25  1  0
  5 26  1  0
  8 27  1  0
 10 28  1  0
 10 29  1  0
 15 30  1  0
 15 31  1  0
 17 32  1  0
 19 33  1  0
 20 34  1  0
 21 35  1  0
M  END
>  <Energy>  (162) 
1558.1561441664087

>  <compound_id>  (162) 
27392

>  <target_id>  (162) 
1

>  <reference_id>  (162) 
96

>  <inspiration_ids>  (162) 
[89, 96]

>  <energy_score>  (162) 
1511.0960925123975

>  <distance_score>  (162) 
4.5300582389459025

>  <path>  (162) 
/opt/xchem-fragalysis-2/maxwin/BulkDock/SCRATCH/511020/C27392-P96/C27392-P96.minimised.mol

>  <scratch_subdir>  (162) 
/opt/xchem-fragalysis-2/maxwin/BulkDock/SCRATCH/511020/C27392-P96

>  <fragmenstein_runtime>  (162) 
12.443632364273071

>  <fragmenstein_outcome>  (162) 
too moved

>  <fragmenstein_mode>  (162) 
expansion

>  <fragmenstein_error>  (162) 


$$$$
C27393-P96
     RDKit          3D

 36 38  0  0  0  0  0  0  0  0999 V2000
   -0.4835  -20.8029   27.8053 O   0  0  0  0  0  0  0  0  0  0  0  0
   -0.6493  -21.5962   28.7344 C   0  0  0  0  0  0  0  0  0  0  0  0
   -2.8526  -21.7870   29.1971 C   0  0  0  0  0  0  0  0  0  0  0  0
   -4.6821  -22.3141   29.2024 N   0  0  0  0  0  0  0  0  0  0  0  0
   -6.0400  -21.8986   28.0796 C   0  0  0  0  0  0  0  0  0  0  0  0
   -5.9222  -21.2742   27.0794 O   0  0  0  0  0  0  0  0  0  0  0  0
   -7.9308  -22.4249   28.6854 C   0  0  0  0  0  0  0  0  0  0  0  0
   -8.1692  -23.2606   29.8008 C   0  0  0  0  0  0  0  0  0  0  0  0
   -9.5251  -23.3642   30.3941 C   0  0  0  0  0  0  0  0  0  0  0  0
   -9.6816  -23.6959   31.7437 C   0  0  0  0  0  0  0  0  0  0  0  0
  -10.8979  -23.4433   32.3764 C   0  0  0  0  0  0  0  0  0  0  0  0
  -11.9806  -22.9493   31.6531 C   0  0  0  0  0  0  0  0  0  0  0  0
  -11.8317  -22.6505   30.3008 C   0  0  0  0  0  0  0  0  0  0  0  0
  -10.6003  -22.8238   29.6858 C   0  0  0  0  0  0  0  0  0  0  0  0
  -10.4308  -22.3259   28.4142 O   0  0  0  0  0  0  0  0  0  0  0  0
   -9.2030  -22.8218   27.8584 C   0  0  0  0  0  0  0  0  0  0  0  0
    0.7315  -22.7305   29.6378 N   0  0  0  0  0  0  0  0  0  0  0  0
    2.1975  -23.0043   29.3751 C   0  0  0  0  0  0  0  0  0  0  0  0
    3.5112  -23.3655   28.4949 C   0  0  0  0  0  0  0  0  0  0  0  0
    4.2875  -24.3221   29.0225 N   0  0  0  0  0  0  0  0  0  0  0  0
    3.7044  -24.5724   30.1712 N   0  0  0  0  0  0  0  0  0  0  0  0
    2.6242  -23.8051   30.4682 C   0  0  0  0  0  0  0  0  0  0  0  0
   -3.1437  -21.0443   29.9597 H   0  0  0  0  0  0  0  0  0  0  0  0
   -3.1439  -22.0073   28.1126 H   0  0  0  0  0  0  0  0  0  0  0  0
   -5.0367  -22.7532   29.9858 H   0  0  0  0  0  0  0  0  0  0  0  0
   -7.4242  -23.5706   30.5082 H   0  0  0  0  0  0  0  0  0  0  0  0
   -8.8392  -24.0495   32.3333 H   0  0  0  0  0  0  0  0  0  0  0  0
  -10.9905  -23.5826   33.4479 H   0  0  0  0  0  0  0  0  0  0  0  0
  -12.9270  -22.7519   32.1499 H   0  0  0  0  0  0  0  0  0  0  0  0
  -12.6514  -22.2236   29.7390 H   0  0  0  0  0  0  0  0  0  0  0  0
   -9.2103  -22.7704   26.7955 H   0  0  0  0  0  0  0  0  0  0  0  0
   -9.3022  -23.9269   27.8962 H   0  0  0  0  0  0  0  0  0  0  0  0
    0.3290  -23.3436   30.2975 H   0  0  0  0  0  0  0  0  0  0  0  0
    3.7596  -23.0861   27.4708 H   0  0  0  0  0  0  0  0  0  0  0  0
    4.1146  -25.3079   30.7266 H   0  0  0  0  0  0  0  0  0  0  0  0
    2.1661  -23.9475   31.4332 H   0  0  0  0  0  0  0  0  0  0  0  0
  1  2  2  0
  2  3  1  0
  3  4  1  0
  4  5  1  0
  5  6  2  0
  5  7  1  0
  7  8  2  0
  8  9  1  0
  9 10  2  0
 10 11  1  0
 11 12  2  0
 12 13  1  0
 13 14  2  0
 14 15  1  0
 15 16  1  0
  2 17  1  0
 17 18  1  0
 18 19  1  0
 19 20  2  0
 20 21  1  0
 21 22  1  0
 16  7  1  0
 22 18  2  0
 14  9  1  0
  3 23  1  0
  3 24  1  0
  4 25  1  0
  8 26  1  0
 10 27  1  0
 11 28  1  0
 12 29  1  0
 13 30  1  0
 16 31  1  0
 16 32  1  0
 17 33  1  0
 19 34  1  0
 21 35  1  0
 22 36  1  0
M  END
>  <Energy>  (163) 
667.90966325608838

>  <compound_id>  (163) 
27393

>  <target_id>  (163) 
1

>  <reference_id>  (163) 
96

>  <inspiration_ids>  (163) 
[89, 96]

>  <energy_score>  (163) 
591.7295079820086

>  <distance_score>  (163) 
4.54767504222034

>  <path>  (163) 
/opt/xchem-fragalysis-2/maxwin/BulkDock/SCRATCH/511020/C27393-P96/C27393-P96.minimised.mol

>  <scratch_subdir>  (163) 
/opt/xchem-fragalysis-2/maxwin/BulkDock/SCRATCH/511020/C27393-P96

>  <fragmenstein_runtime>  (163) 
24.32119131088257

>  <fragmenstein_outcome>  (163) 
too moved

>  <fragmenstein_mode>  (163) 
expansion

>  <fragmenstein_error>  (163) 


$$$$
C27395-P96
     RDKit          3D

 42 44  0  0  0  0  0  0  0  0999 V2000
   -9.9602  -21.5909   28.1303 O   0  0  0  0  0  0  0  0  0  0  0  0
   -8.9870  -22.2473   27.7399 C   0  0  0  0  0  0  0  0  0  0  0  0
   -9.3046  -23.3898   27.1203 O   0  0  0  0  0  0  0  0  0  0  0  0
   -7.2145  -21.8150   28.0778 C   0  0  0  0  0  0  0  0  0  0  0  0
   -5.2151  -21.6242   27.4780 C   0  0  0  0  0  0  0  0  0  0  0  0
   -3.1776  -22.0714   27.7527 C   0  0  0  0  0  0  0  0  0  0  0  0
   -1.1548  -21.4473   27.6763 C   0  0  0  0  0  0  0  0  0  0  0  0
    0.7040  -20.9419   27.1391 C   0  0  0  0  0  0  0  0  0  0  0  0
    1.6833  -21.7931   27.2327 N   0  0  0  0  0  0  0  0  0  0  0  0
    1.2160  -22.2772   28.6931 N   0  0  0  0  0  0  0  0  0  0  0  0
   -0.3348  -21.4680   28.7401 C   0  0  0  0  0  0  0  0  0  0  0  0
   -7.8268  -23.1789   29.2941 N   0  0  0  0  0  0  0  0  0  0  0  0
   -9.0553  -23.1198   30.1263 C   0  0  0  0  0  0  0  0  0  0  0  0
  -10.0423  -24.2745   30.0397 C   0  0  0  0  0  0  0  0  0  0  0  0
  -11.2735  -24.1047   30.5789 C   0  0  0  0  0  0  0  0  0  0  0  0
  -10.9829  -23.8026   32.0008 C   0  0  0  0  0  0  0  0  0  0  0  0
  -11.6059  -22.7563   32.6612 C   0  0  0  0  0  0  0  0  0  0  0  0
  -11.1073  -22.3885   33.9017 C   0  0  0  0  0  0  0  0  0  0  0  0
   -9.9828  -23.0370   34.4442 C   0  0  0  0  0  0  0  0  0  0  0  0
   -9.3258  -24.0556   33.7754 C   0  0  0  0  0  0  0  0  0  0  0  0
   -9.8678  -24.4764   32.5831 C   0  0  0  0  0  0  0  0  0  0  0  0
   -9.2075  -25.4989   31.9421 O   0  0  0  0  0  0  0  0  0  0  0  0
   -9.4406  -25.5408   30.5219 C   0  0  0  0  0  0  0  0  0  0  0  0
  -10.2851  -23.3206   27.1254 H   0  0  0  0  0  0  0  0  0  0  0  0
   -7.4434  -20.8099   28.2394 H   0  0  0  0  0  0  0  0  0  0  0  0
   -5.1590  -20.5417   27.4236 H   0  0  0  0  0  0  0  0  0  0  0  0
   -5.3661  -21.8884   26.4269 H   0  0  0  0  0  0  0  0  0  0  0  0
   -3.3611  -22.0900   28.8482 H   0  0  0  0  0  0  0  0  0  0  0  0
   -2.9823  -23.1214   27.4795 H   0  0  0  0  0  0  0  0  0  0  0  0
    0.8916  -21.3400   26.0796 H   0  0  0  0  0  0  0  0  0  0  0  0
    1.7074  -22.8143   29.4279 H   0  0  0  0  0  0  0  0  0  0  0  0
    0.1156  -21.5093   29.6531 H   0  0  0  0  0  0  0  0  0  0  0  0
   -7.9854  -24.0428   28.7575 H   0  0  0  0  0  0  0  0  0  0  0  0
   -8.6387  -23.0378   31.1342 H   0  0  0  0  0  0  0  0  0  0  0  0
   -9.7564  -22.2933   30.0283 H   0  0  0  0  0  0  0  0  0  0  0  0
  -12.0333  -24.8837   30.5192 H   0  0  0  0  0  0  0  0  0  0  0  0
  -12.4325  -22.2139   32.2150 H   0  0  0  0  0  0  0  0  0  0  0  0
  -11.5872  -21.5936   34.4700 H   0  0  0  0  0  0  0  0  0  0  0  0
   -9.6529  -22.7781   35.4445 H   0  0  0  0  0  0  0  0  0  0  0  0
   -8.4453  -24.5352   34.1841 H   0  0  0  0  0  0  0  0  0  0  0  0
   -8.4834  -25.6775   30.0284 H   0  0  0  0  0  0  0  0  0  0  0  0
  -10.1104  -26.3741   30.2878 H   0  0  0  0  0  0  0  0  0  0  0  0
  1  2  2  0
  2  3  1  0
  2  4  1  0
  4  5  1  0
  5  6  1  0
  6  7  1  0
  7  8  1  0
  8  9  2  0
  9 10  1  0
 10 11  1  0
  4 12  1  0
 12 13  1  0
 13 14  1  0
 14 15  2  0
 15 16  1  0
 16 17  2  0
 17 18  1  0
 18 19  2  0
 19 20  1  0
 20 21  2  0
 21 22  1  0
 22 23  1  0
 11  7  2  0
 23 14  1  0
 21 16  1  0
  3 24  1  0
  4 25  1  0
  5 26  1  0
  5 27  1  0
  6 28  1  0
  6 29  1  0
  8 30  1  0
 10 31  1  0
 11 32  1  0
 12 33  1  0
 13 34  1  0
 13 35  1  0
 15 36  1  0
 17 37  1  0
 18 38  1  0
 19 39  1  0
 20 40  1  0
 23 41  1  0
 23 42  1  0
M  END
>  <Energy>  (164) 
964.28485012186377

>  <compound_id>  (164) 
27395

>  <target_id>  (164) 
1

>  <reference_id>  (164) 
96

>  <inspiration_ids>  (164) 
[89, 96]

>  <energy_score>  (164) 
882.0914088158092

>  <distance_score>  (164) 
4.000587015147655

>  <path>  (164) 
/opt/xchem-fragalysis-2/maxwin/BulkDock/SCRATCH/511020/C27395-P96/C27395-P96.minimised.mol

>  <scratch_subdir>  (164) 
/opt/xchem-fragalysis-2/maxwin/BulkDock/SCRATCH/511020/C27395-P96

>  <fragmenstein_runtime>  (164) 
24.895445823669434

>  <fragmenstein_outcome>  (164) 
too moved

>  <fragmenstein_mode>  (164) 
expansion

>  <fragmenstein_error>  (164) 


$$$$
C27396-P96
     RDKit          3D

 41 43  0  0  0  0  0  0  0  0999 V2000
   -7.9149  -24.3043   29.1220 O   0  0  0  0  0  0  0  0  0  0  0  0
   -8.4953  -23.2453   29.0582 C   0  0  0  0  0  0  0  0  0  0  0  0
   -8.1084  -21.9453   28.3674 N   0  0  0  0  0  0  0  0  0  0  0  0
   -6.6346  -21.4803   27.5186 C   0  0  0  0  0  0  0  0  0  0  0  0
   -4.7745  -21.5209   27.6400 C   0  0  0  0  0  0  0  0  0  0  0  0
   -2.8449  -22.0880   27.7825 C   0  0  0  0  0  0  0  0  0  0  0  0
   -0.8682  -21.1592   27.8621 C   0  0  0  0  0  0  0  0  0  0  0  0
    0.9958  -20.8350   27.0731 C   0  0  0  0  0  0  0  0  0  0  0  0
    2.3939  -20.0254   27.1239 C   0  0  0  0  0  0  0  0  0  0  0  0
    3.5504  -20.3197   26.4627 N   0  0  0  0  0  0  0  0  0  0  0  0
    3.1745  -21.4442   25.9348 N   0  0  0  0  0  0  0  0  0  0  0  0
    1.8921  -21.7133   26.5538 C   0  0  0  0  0  0  0  0  0  0  0  0
   -9.7352  -23.2493   29.9010 C   0  0  0  0  0  0  0  0  0  0  0  0
  -10.7106  -22.3324   29.9779 C   0  0  0  0  0  0  0  0  0  0  0  0
  -11.3540  -22.2536   31.3032 C   0  0  0  0  0  0  0  0  0  0  0  0
  -12.4608  -21.4499   31.5320 C   0  0  0  0  0  0  0  0  0  0  0  0
  -12.9527  -21.2616   32.8201 C   0  0  0  0  0  0  0  0  0  0  0  0
  -14.5247  -20.2545   33.1211 Br  0  0  0  0  0  0  0  0  0  0  0  0
  -12.2837  -21.8046   33.9019 C   0  0  0  0  0  0  0  0  0  0  0  0
  -11.1598  -22.5883   33.7022 C   0  0  0  0  0  0  0  0  0  0  0  0
  -10.7405  -22.8557   32.4119 C   0  0  0  0  0  0  0  0  0  0  0  0
   -9.6814  -23.7069   32.2958 O   0  0  0  0  0  0  0  0  0  0  0  0
   -9.6636  -24.3100   30.9973 C   0  0  0  0  0  0  0  0  0  0  0  0
   -8.8713  -21.2833   28.4488 H   0  0  0  0  0  0  0  0  0  0  0  0
   -6.8354  -21.8107   26.5046 H   0  0  0  0  0  0  0  0  0  0  0  0
   -6.8154  -20.4217   27.5880 H   0  0  0  0  0  0  0  0  0  0  0  0
   -4.8807  -21.9945   26.6706 H   0  0  0  0  0  0  0  0  0  0  0  0
   -5.0107  -22.1136   28.5171 H   0  0  0  0  0  0  0  0  0  0  0  0
   -3.2464  -21.4588   27.0992 H   0  0  0  0  0  0  0  0  0  0  0  0
   -3.1920  -22.0473   28.8603 H   0  0  0  0  0  0  0  0  0  0  0  0
   -0.4556  -21.5602   28.7633 H   0  0  0  0  0  0  0  0  0  0  0  0
   -0.7976  -20.0528   28.1303 H   0  0  0  0  0  0  0  0  0  0  0  0
    2.6146  -19.4205   27.9597 H   0  0  0  0  0  0  0  0  0  0  0  0
    3.8292  -22.0552   25.4469 H   0  0  0  0  0  0  0  0  0  0  0  0
    2.0601  -22.5583   27.2100 H   0  0  0  0  0  0  0  0  0  0  0  0
  -10.8419  -21.5120   29.2816 H   0  0  0  0  0  0  0  0  0  0  0  0
  -12.9173  -20.9465   30.7050 H   0  0  0  0  0  0  0  0  0  0  0  0
  -12.6305  -21.6328   34.9083 H   0  0  0  0  0  0  0  0  0  0  0  0
  -10.6273  -22.9980   34.5532 H   0  0  0  0  0  0  0  0  0  0  0  0
   -8.7671  -24.9320   30.9921 H   0  0  0  0  0  0  0  0  0  0  0  0
  -10.5057  -25.0105   30.9014 H   0  0  0  0  0  0  0  0  0  0  0  0
  1  2  2  0
  2  3  1  0
  3  4  1  0
  4  5  1  0
  5  6  1  0
  6  7  1  0
  7  8  1  0
  8  9  1  0
  9 10  2  0
 10 11  1  0
 11 12  1  0
  2 13  1  0
 13 14  2  0
 14 15  1  0
 15 16  2  0
 16 17  1  0
 17 18  1  0
 17 19  2  0
 19 20  1  0
 20 21  2  0
 21 22  1  0
 22 23  1  0
 12  8  2  0
 23 13  1  0
 21 15  1  0
  3 24  1  0
  4 25  1  0
  4 26  1  0
  5 27  1  0
  5 28  1  0
  6 29  1  0
  6 30  1  0
  7 31  1  0
  7 32  1  0
  9 33  1  0
 11 34  1  0
 12 35  1  0
 14 36  1  0
 16 37  1  0
 19 38  1  0
 20 39  1  0
 23 40  1  0
 23 41  1  0
M  END
>  <Energy>  (165) 
664.36246720691395

>  <compound_id>  (165) 
27396

>  <target_id>  (165) 
1

>  <reference_id>  (165) 
96

>  <inspiration_ids>  (165) 
[89, 96]

>  <energy_score>  (165) 
632.6064193923896

>  <distance_score>  (165) 
3.690053467693113

>  <path>  (165) 
/opt/xchem-fragalysis-2/maxwin/BulkDock/SCRATCH/511020/C27396-P96/C27396-P96.minimised.mol

>  <scratch_subdir>  (165) 
/opt/xchem-fragalysis-2/maxwin/BulkDock/SCRATCH/511020/C27396-P96

>  <fragmenstein_runtime>  (165) 
32.76443123817444

>  <fragmenstein_outcome>  (165) 
too moved

>  <fragmenstein_mode>  (165) 
expansion

>  <fragmenstein_error>  (165) 


$$$$
C27397-P96
     RDKit          3D

 43 45  0  0  0  0  0  0  0  0999 V2000
   -1.2099  -21.6668   26.9803 O   0  0  0  0  0  0  0  0  0  0  0  0
   -0.7511  -22.3453   25.9852 C   0  0  0  0  0  0  0  0  0  0  0  0
   -2.0088  -23.7211   25.2714 C   0  0  0  0  0  0  0  0  0  0  0  0
   -3.7676  -23.6559   24.5363 C   0  0  0  0  0  0  0  0  0  0  0  0
   -5.5530  -23.1603   24.5162 C   0  0  0  0  0  0  0  0  0  0  0  0
   -6.9054  -22.6300   25.4646 N   0  0  0  0  0  0  0  0  0  0  0  0
   -8.4462  -23.0447   26.5925 C   0  0  0  0  0  0  0  0  0  0  0  0
   -9.1615  -23.5136   27.9868 C   0  0  0  0  0  0  0  0  0  0  0  0
  -10.1106  -22.7049   28.5095 C   0  0  0  0  0  0  0  0  0  0  0  0
  -10.5274  -22.9153   29.8907 C   0  0  0  0  0  0  0  0  0  0  0  0
  -11.1549  -21.8948   30.6163 C   0  0  0  0  0  0  0  0  0  0  0  0
  -11.3102  -22.0131   31.9982 C   0  0  0  0  0  0  0  0  0  0  0  0
  -10.8450  -23.1511   32.6537 C   0  0  0  0  0  0  0  0  0  0  0  0
  -10.2747  -24.1949   31.9218 C   0  0  0  0  0  0  0  0  0  0  0  0
  -10.1312  -24.0770   30.5437 C   0  0  0  0  0  0  0  0  0  0  0  0
   -9.6174  -25.1394   29.8642 O   0  0  0  0  0  0  0  0  0  0  0  0
   -8.8286  -24.8030   28.7102 C   0  0  0  0  0  0  0  0  0  0  0  0
    0.9661  -22.3585   25.2142 N   0  0  0  0  0  0  0  0  0  0  0  0
    2.5431  -21.5621   25.7083 C   0  0  0  0  0  0  0  0  0  0  0  0
    3.8725  -22.1657   25.1791 C   0  0  0  0  0  0  0  0  0  0  0  0
    5.0166  -21.6438   25.6052 N   0  0  0  0  0  0  0  0  0  0  0  0
    4.5901  -20.6037   26.2896 N   0  0  0  0  0  0  0  0  0  0  0  0
    3.2259  -20.5938   26.4353 C   0  0  0  0  0  0  0  0  0  0  0  0
   -2.0970  -24.0378   26.2991 H   0  0  0  0  0  0  0  0  0  0  0  0
   -1.4754  -24.5119   24.7147 H   0  0  0  0  0  0  0  0  0  0  0  0
   -3.7721  -24.6212   24.0416 H   0  0  0  0  0  0  0  0  0  0  0  0
   -3.9535  -23.2944   25.5181 H   0  0  0  0  0  0  0  0  0  0  0  0
   -5.4569  -22.2921   23.8826 H   0  0  0  0  0  0  0  0  0  0  0  0
   -5.9581  -23.8329   23.7640 H   0  0  0  0  0  0  0  0  0  0  0  0
   -7.4529  -22.7668   24.5858 H   0  0  0  0  0  0  0  0  0  0  0  0
   -9.3153  -23.2060   25.9036 H   0  0  0  0  0  0  0  0  0  0  0  0
   -8.1301  -22.1754   27.1774 H   0  0  0  0  0  0  0  0  0  0  0  0
  -10.4306  -21.7882   28.0228 H   0  0  0  0  0  0  0  0  0  0  0  0
  -11.4476  -20.9705   30.1231 H   0  0  0  0  0  0  0  0  0  0  0  0
  -11.7549  -21.2022   32.5699 H   0  0  0  0  0  0  0  0  0  0  0  0
  -10.9288  -23.2125   33.7358 H   0  0  0  0  0  0  0  0  0  0  0  0
   -9.9065  -25.0867   32.4190 H   0  0  0  0  0  0  0  0  0  0  0  0
   -8.9689  -25.6320   28.0116 H   0  0  0  0  0  0  0  0  0  0  0  0
   -7.7980  -24.8108   29.0597 H   0  0  0  0  0  0  0  0  0  0  0  0
    0.9836  -22.9482   24.3795 H   0  0  0  0  0  0  0  0  0  0  0  0
    3.9608  -22.9763   24.4699 H   0  0  0  0  0  0  0  0  0  0  0  0
    5.2835  -19.9556   26.6579 H   0  0  0  0  0  0  0  0  0  0  0  0
    2.8163  -19.8666   27.0876 H   0  0  0  0  0  0  0  0  0  0  0  0
  1  2  2  0
  2  3  1  0
  3  4  1  0
  4  5  1  0
  5  6  1  0
  6  7  1  0
  7  8  1  0
  8  9  2  0
  9 10  1  0
 10 11  2  0
 11 12  1  0
 12 13  2  0
 13 14  1  0
 14 15  2  0
 15 16  1  0
 16 17  1  0
  2 18  1  0
 18 19  1  0
 19 20  1  0
 20 21  2  0
 21 22  1  0
 22 23  1  0
 17  8  1  0
 23 19  2  0
 15 10  1  0
  3 24  1  0
  3 25  1  0
  4 26  1  0
  4 27  1  0
  5 28  1  0
  5 29  1  0
  6 30  1  0
  7 31  1  0
  7 32  1  0
  9 33  1  0
 11 34  1  0
 12 35  1  0
 13 36  1  0
 14 37  1  0
 17 38  1  0
 17 39  1  0
 18 40  1  0
 20 41  1  0
 22 42  1  0
 23 43  1  0
M  END
>  <Energy>  (166) 
609.52453263422342

>  <compound_id>  (166) 
27397

>  <target_id>  (166) 
1

>  <reference_id>  (166) 
96

>  <inspiration_ids>  (166) 
[89, 96]

>  <energy_score>  (166) 
537.1534243977559

>  <distance_score>  (166) 
3.4649087631720565

>  <path>  (166) 
/opt/xchem-fragalysis-2/maxwin/BulkDock/SCRATCH/511020/C27397-P96/C27397-P96.minimised.mol

>  <scratch_subdir>  (166) 
/opt/xchem-fragalysis-2/maxwin/BulkDock/SCRATCH/511020/C27397-P96

>  <fragmenstein_runtime>  (166) 
22.965487480163574

>  <fragmenstein_outcome>  (166) 
too moved

>  <fragmenstein_mode>  (166) 
expansion

>  <fragmenstein_error>  (166) 


$$$$
C27398-P96
     RDKit          3D

 36 38  0  0  0  0  0  0  0  0999 V2000
    8.1130  -26.8878   24.3320 C   0  0  0  0  0  0  0  0  0  0  0  0
    6.7794  -26.4279   24.8915 C   0  0  0  0  0  0  0  0  0  0  0  0
    6.4274  -27.2623   26.0040 O   0  0  0  0  0  0  0  0  0  0  0  0
    6.2614  -26.5417   27.1512 C   0  0  0  0  0  0  0  0  0  0  0  0
    7.2645  -25.8112   27.7146 C   0  0  0  0  0  0  0  0  0  0  0  0
    6.8714  -24.9225   28.6817 C   0  0  0  0  0  0  0  0  0  0  0  0
    5.5517  -24.9285   29.1443 C   0  0  0  0  0  0  0  0  0  0  0  0
    4.5661  -25.7953   28.8231 C   0  0  0  0  0  0  0  0  0  0  0  0
    4.9741  -26.4993   27.7128 C   0  0  0  0  0  0  0  0  0  0  0  0
    3.1951  -25.5966   29.5065 C   0  0  0  0  0  0  0  0  0  0  0  0
    2.8162  -24.3205   29.8340 C   0  0  0  0  0  0  0  0  0  0  0  0
    1.4247  -23.6792   30.0891 C   0  0  0  0  0  0  0  0  0  0  0  0
    0.8686  -24.2787   30.9588 O   0  0  0  0  0  0  0  0  0  0  0  0
    0.8232  -22.3162   29.0109 N   0  0  0  0  0  0  0  0  0  0  0  0
   -0.9047  -21.4996   28.7901 C   0  0  0  0  0  0  0  0  0  0  0  0
   -1.6115  -21.9932   27.4325 C   0  0  0  0  0  0  0  0  0  0  0  0
   -2.8463  -22.7748   27.5671 N   0  0  0  0  0  0  0  0  0  0  0  0
   -3.5456  -22.0679   28.4085 N   0  0  0  0  0  0  0  0  0  0  0  0
   -2.7498  -21.6821   29.4758 C   0  0  0  0  0  0  0  0  0  0  0  0
    3.9221  -23.5426   29.8671 C   0  0  0  0  0  0  0  0  0  0  0  0
    5.2118  -23.9987   30.0279 O   0  0  0  0  0  0  0  0  0  0  0  0
    8.9063  -26.7807   25.0785 H   0  0  0  0  0  0  0  0  0  0  0  0
    8.0721  -27.9477   24.0598 H   0  0  0  0  0  0  0  0  0  0  0  0
    8.3839  -26.3064   23.4462 H   0  0  0  0  0  0  0  0  0  0  0  0
    6.0031  -26.5622   24.1302 H   0  0  0  0  0  0  0  0  0  0  0  0
    6.8133  -25.3573   25.1316 H   0  0  0  0  0  0  0  0  0  0  0  0
    8.2793  -25.8452   27.3467 H   0  0  0  0  0  0  0  0  0  0  0  0
    7.5644  -24.2069   29.1078 H   0  0  0  0  0  0  0  0  0  0  0  0
    4.2315  -26.8266   27.0258 H   0  0  0  0  0  0  0  0  0  0  0  0
    2.4814  -26.3996   29.5052 H   0  0  0  0  0  0  0  0  0  0  0  0
    1.4860  -22.0870   28.3279 H   0  0  0  0  0  0  0  0  0  0  0  0
   -1.1072  -22.1824   26.4776 H   0  0  0  0  0  0  0  0  0  0  0  0
   -4.4700  -21.7919   28.0897 H   0  0  0  0  0  0  0  0  0  0  0  0
   -3.1662  -21.1420   30.3410 H   0  0  0  0  0  0  0  0  0  0  0  0
    3.6829  -23.0248   30.7892 H   0  0  0  0  0  0  0  0  0  0  0  0
    3.8433  -23.1974   28.8272 H   0  0  0  0  0  0  0  0  0  0  0  0
  1  2  1  0
  2  3  1  0
  3  4  1  0
  4  5  2  0
  5  6  1  0
  6  7  2  0
  7  8  1  0
  8  9  2  0
  8 10  1  0
 10 11  2  0
 11 12  1  0
 12 13  2  0
 12 14  1  0
 14 15  1  0
 15 16  1  0
 16 17  2  0
 17 18  1  0
 18 19  1  0
 11 20  1  0
 20 21  1  0
  9  4  1  0
 19 15  2  0
 21  7  1  0
  1 22  1  0
  1 23  1  0
  1 24  1  0
  2 25  1  0
  2 26  1  0
  5 27  1  0
  6 28  1  0
  9 29  1  0
 10 30  1  0
 14 31  1  0
 16 32  1  0
 18 33  1  0
 19 34  1  0
 20 35  1  0
 20 36  1  0
M  END
>  <Energy>  (167) 
461.86991760171765

>  <compound_id>  (167) 
27398

>  <target_id>  (167) 
1

>  <reference_id>  (167) 
96

>  <inspiration_ids>  (167) 
[89, 96]

>  <energy_score>  (167) 
417.8167679160782

>  <distance_score>  (167) 
6.797913360333056

>  <path>  (167) 
/opt/xchem-fragalysis-2/maxwin/BulkDock/SCRATCH/511020/C27398-P96/C27398-P96.minimised.mol

>  <scratch_subdir>  (167) 
/opt/xchem-fragalysis-2/maxwin/BulkDock/SCRATCH/511020/C27398-P96

>  <fragmenstein_runtime>  (167) 
14.736325979232788

>  <fragmenstein_outcome>  (167) 
too moved

>  <fragmenstein_mode>  (167) 
expansion

>  <fragmenstein_error>  (167) 


$$$$
C27399-P96
     RDKit          3D

 42 44  0  0  0  0  0  0  0  0999 V2000
    5.4361  -25.1650   28.9783 C   0  0  0  0  0  0  0  0  0  0  0  0
    4.0493  -25.3424   29.5909 C   0  0  0  0  0  0  0  0  0  0  0  0
    3.2157  -24.3333   30.1710 O   0  0  0  0  0  0  0  0  0  0  0  0
    3.1012  -23.1314   29.5430 C   0  0  0  0  0  0  0  0  0  0  0  0
    4.1172  -22.7743   28.0527 C   0  0  0  0  0  0  0  0  0  0  0  0
    4.7419  -21.0403   27.7367 C   0  0  0  0  0  0  0  0  0  0  0  0
    4.6239  -19.5454   28.7700 C   0  0  0  0  0  0  0  0  0  0  0  0
    3.2184  -19.6839   29.7670 C   0  0  0  0  0  0  0  0  0  0  0  0
    2.4547  -21.6740   30.5451 C   0  0  0  0  0  0  0  0  0  0  0  0
    2.0724  -18.4565   29.1376 C   0  0  0  0  0  0  0  0  0  0  0  0
    0.8291  -17.8354   29.4197 C   0  0  0  0  0  0  0  0  0  0  0  0
   -0.7012  -19.1700   28.9378 C   0  0  0  0  0  0  0  0  0  0  0  0
   -0.4331  -19.6791   27.9299 O   0  0  0  0  0  0  0  0  0  0  0  0
   -2.3431  -19.9824   29.7280 N   0  0  0  0  0  0  0  0  0  0  0  0
   -3.5020  -21.6546   29.1253 C   0  0  0  0  0  0  0  0  0  0  0  0
   -3.0257  -22.4502   27.7764 C   0  0  0  0  0  0  0  0  0  0  0  0
   -5.3945  -22.3271   28.7149 C   0  0  0  0  0  0  0  0  0  0  0  0
   -6.4120  -21.4379   27.7689 C   0  0  0  0  0  0  0  0  0  0  0  0
   -7.7564  -21.6128   28.0138 N   0  0  0  0  0  0  0  0  0  0  0  0
   -8.1310  -22.6838   28.8711 N   0  0  0  0  0  0  0  0  0  0  0  0
   -6.8091  -23.5005   29.2530 C   0  0  0  0  0  0  0  0  0  0  0  0
    2.5118  -17.7514   30.4369 C   0  0  0  0  0  0  0  0  0  0  0  0
    4.1994  -18.6634   30.3025 O   0  0  0  0  0  0  0  0  0  0  0  0
    6.0814  -25.9988   29.2821 H   0  0  0  0  0  0  0  0  0  0  0  0
    5.9321  -24.2342   29.2428 H   0  0  0  0  0  0  0  0  0  0  0  0
    5.4097  -25.2653   27.8929 H   0  0  0  0  0  0  0  0  0  0  0  0
    3.4392  -25.9386   28.9187 H   0  0  0  0  0  0  0  0  0  0  0  0
    4.2824  -25.9523   30.4576 H   0  0  0  0  0  0  0  0  0  0  0  0
    4.5356  -23.5246   27.4113 H   0  0  0  0  0  0  0  0  0  0  0  0
    5.3949  -20.9500   26.8605 H   0  0  0  0  0  0  0  0  0  0  0  0
    1.8042  -21.9455   31.3968 H   0  0  0  0  0  0  0  0  0  0  0  0
    2.4300  -19.1308   28.3224 H   0  0  0  0  0  0  0  0  0  0  0  0
   -2.5724  -19.4926   30.4931 H   0  0  0  0  0  0  0  0  0  0  0  0
   -3.9397  -21.1115   28.1585 H   0  0  0  0  0  0  0  0  0  0  0  0
   -2.8321  -23.5287   27.7829 H   0  0  0  0  0  0  0  0  0  0  0  0
   -3.8073  -22.3085   27.0312 H   0  0  0  0  0  0  0  0  0  0  0  0
   -2.0268  -22.0392   27.4985 H   0  0  0  0  0  0  0  0  0  0  0  0
   -6.0746  -20.6400   27.1220 H   0  0  0  0  0  0  0  0  0  0  0  0
   -9.0826  -23.0365   28.9048 H   0  0  0  0  0  0  0  0  0  0  0  0
   -7.0122  -24.5768   29.1957 H   0  0  0  0  0  0  0  0  0  0  0  0
    2.4775  -17.9479   31.5125 H   0  0  0  0  0  0  0  0  0  0  0  0
    2.8512  -16.7557   30.2854 H   0  0  0  0  0  0  0  0  0  0  0  0
  1  2  1  0
  2  3  1  0
  3  4  1  0
  4  5  2  0
  5  6  1  0
  6  7  2  0
  7  8  1  0
  8  9  2  0
  8 10  1  0
 10 11  2  0
 11 12  1  0
 12 13  2  0
 12 14  1  0
 14 15  1  0
 15 16  1  0
 15 17  1  0
 17 18  1  0
 18 19  2  0
 19 20  1  0
 20 21  1  0
 11 22  1  0
 22 23  1  0
  9  4  1  0
 21 17  2  0
 23  7  1  0
  1 24  1  0
  1 25  1  0
  1 26  1  0
  2 27  1  0
  2 28  1  0
  5 29  1  0
  6 30  1  0
  9 31  1  0
 10 32  1  0
 14 33  1  0
 15 34  1  0
 16 35  1  0
 16 36  1  0
 16 37  1  0
 18 38  1  0
 20 39  1  0
 21 40  1  0
 22 41  1  0
 22 42  1  0
M  END
>  <Energy>  (168) 
1952.5046024154567

>  <compound_id>  (168) 
27399

>  <target_id>  (168) 
1

>  <reference_id>  (168) 
96

>  <inspiration_ids>  (168) 
[89, 96]

>  <energy_score>  (168) 
1922.507596831886

>  <distance_score>  (168) 
3.6009350367062765

>  <path>  (168) 
/opt/xchem-fragalysis-2/maxwin/BulkDock/SCRATCH/511020/C27399-P96/C27399-P96.minimised.mol

>  <scratch_subdir>  (168) 
/opt/xchem-fragalysis-2/maxwin/BulkDock/SCRATCH/511020/C27399-P96

>  <fragmenstein_runtime>  (168) 
17.78051781654358

>  <fragmenstein_outcome>  (168) 
too moved

>  <fragmenstein_mode>  (168) 
expansion

>  <fragmenstein_error>  (168) 


$$$$
C27400-P96
     RDKit          3D

 39 41  0  0  0  0  0  0  0  0999 V2000
   -9.6537  -21.3747   28.5735 O   0  0  0  0  0  0  0  0  0  0  0  0
   -8.7336  -22.4232   28.1692 S   0  0  0  0  0  0  0  0  0  0  0  0
   -9.1581  -23.1474   26.9900 O   0  0  0  0  0  0  0  0  0  0  0  0
   -6.7990  -21.4412   27.7950 N   0  0  0  0  0  0  0  0  0  0  0  0
   -4.9232  -21.6327   27.2627 C   0  0  0  0  0  0  0  0  0  0  0  0
   -2.9885  -22.0605   27.7614 C   0  0  0  0  0  0  0  0  0  0  0  0
   -0.9886  -21.2235   27.7579 C   0  0  0  0  0  0  0  0  0  0  0  0
    0.9366  -20.8264   27.0909 C   0  0  0  0  0  0  0  0  0  0  0  0
    1.8954  -21.7103   26.5636 C   0  0  0  0  0  0  0  0  0  0  0  0
    3.1353  -21.5771   25.9778 N   0  0  0  0  0  0  0  0  0  0  0  0
    3.4271  -20.4135   26.4189 N   0  0  0  0  0  0  0  0  0  0  0  0
    2.2118  -20.0549   27.1435 C   0  0  0  0  0  0  0  0  0  0  0  0
   -8.8811  -23.6662   29.4020 C   0  0  0  0  0  0  0  0  0  0  0  0
   -8.5285  -23.4077   30.6428 C   0  0  0  0  0  0  0  0  0  0  0  0
   -9.0263  -24.1048   31.7575 C   0  0  0  0  0  0  0  0  0  0  0  0
   -8.7106  -23.5830   33.0074 C   0  0  0  0  0  0  0  0  0  0  0  0
   -8.6391  -24.4471   34.0509 C   0  0  0  0  0  0  0  0  0  0  0  0
   -8.8738  -25.7808   33.7993 C   0  0  0  0  0  0  0  0  0  0  0  0
   -9.4972  -26.1814   32.6101 C   0  0  0  0  0  0  0  0  0  0  0  0
   -9.5672  -25.3334   31.5362 C   0  0  0  0  0  0  0  0  0  0  0  0
  -10.0236  -25.7265   30.3133 O   0  0  0  0  0  0  0  0  0  0  0  0
   -9.8609  -24.7906   29.1912 C   0  0  0  0  0  0  0  0  0  0  0  0
   -7.0769  -20.4746   27.6055 H   0  0  0  0  0  0  0  0  0  0  0  0
   -4.8468  -20.5655   27.1400 H   0  0  0  0  0  0  0  0  0  0  0  0
   -5.0485  -21.9604   28.2799 H   0  0  0  0  0  0  0  0  0  0  0  0
   -3.2886  -22.0515   28.8429 H   0  0  0  0  0  0  0  0  0  0  0  0
   -2.8361  -23.1313   27.5102 H   0  0  0  0  0  0  0  0  0  0  0  0
   -1.1722  -21.8278   26.8861 H   0  0  0  0  0  0  0  0  0  0  0  0
   -0.5744  -21.5177   28.6913 H   0  0  0  0  0  0  0  0  0  0  0  0
    1.9961  -22.5564   27.2320 H   0  0  0  0  0  0  0  0  0  0  0  0
    4.3753  -20.0320   26.3975 H   0  0  0  0  0  0  0  0  0  0  0  0
    2.5859  -19.4464   27.9213 H   0  0  0  0  0  0  0  0  0  0  0  0
   -7.8737  -22.6814   30.9971 H   0  0  0  0  0  0  0  0  0  0  0  0
   -8.3949  -22.5539   33.1359 H   0  0  0  0  0  0  0  0  0  0  0  0
   -8.3618  -24.0699   35.0162 H   0  0  0  0  0  0  0  0  0  0  0  0
   -8.6795  -26.5143   34.5650 H   0  0  0  0  0  0  0  0  0  0  0  0
   -9.9054  -27.1798   32.5615 H   0  0  0  0  0  0  0  0  0  0  0  0
  -10.8568  -24.3945   28.9621 H   0  0  0  0  0  0  0  0  0  0  0  0
   -9.5396  -25.4045   28.3439 H   0  0  0  0  0  0  0  0  0  0  0  0
  1  2  2  0
  2  3  2  0
  2  4  1  0
  4  5  1  0
  5  6  1  0
  6  7  1  0
  7  8  1  0
  8  9  1  0
  9 10  2  0
 10 11  1  0
 11 12  1  0
  2 13  1  0
 13 14  2  0
 14 15  1  0
 15 16  2  0
 16 17  1  0
 17 18  2  0
 18 19  1  0
 19 20  2  0
 20 21  1  0
 21 22  1  0
 12  8  2  0
 22 13  1  0
 20 15  1  0
  4 23  1  0
  5 24  1  0
  5 25  1  0
  6 26  1  0
  6 27  1  0
  7 28  1  0
  7 29  1  0
  9 30  1  0
 11 31  1  0
 12 32  1  0
 14 33  1  0
 16 34  1  0
 17 35  1  0
 18 36  1  0
 19 37  1  0
 22 38  1  0
 22 39  1  0
M  END
>  <Energy>  (169) 
659.92681300629192

>  <compound_id>  (169) 
27400

>  <target_id>  (169) 
1

>  <reference_id>  (169) 
96

>  <inspiration_ids>  (169) 
[89, 96]

>  <energy_score>  (169) 
692.6216483821978

>  <distance_score>  (169) 
3.581739708615921

>  <path>  (169) 
/opt/xchem-fragalysis-2/maxwin/BulkDock/SCRATCH/511020/C27400-P96/C27400-P96.minimised.mol

>  <scratch_subdir>  (169) 
/opt/xchem-fragalysis-2/maxwin/BulkDock/SCRATCH/511020/C27400-P96

>  <fragmenstein_runtime>  (169) 
28.55648899078369

>  <fragmenstein_outcome>  (169) 
too moved

>  <fragmenstein_mode>  (169) 
expansion

>  <fragmenstein_error>  (169) 


$$$$
C27401-P96
     RDKit          3D

 39 41  0  0  0  0  0  0  0  0999 V2000
    5.5526  -22.4682   24.3249 C   0  0  0  0  0  0  0  0  0  0  0  0
    6.0023  -21.4766   25.3850 C   0  0  0  0  0  0  0  0  0  0  0  0
    4.9485  -20.4894   25.8938 C   0  0  0  0  0  0  0  0  0  0  0  0
    5.2431  -19.9346   27.1974 O   0  0  0  0  0  0  0  0  0  0  0  0
    5.3240  -20.8173   28.2042 C   0  0  0  0  0  0  0  0  0  0  0  0
    4.4631  -22.5120   27.9284 C   0  0  0  0  0  0  0  0  0  0  0  0
    3.4253  -23.3293   29.3154 C   0  0  0  0  0  0  0  0  0  0  0  0
    3.1138  -22.9338   31.0484 C   0  0  0  0  0  0  0  0  0  0  0  0
    4.8513  -22.1621   31.2456 C   0  0  0  0  0  0  0  0  0  0  0  0
    5.5499  -20.4664   30.1311 C   0  0  0  0  0  0  0  0  0  0  0  0
    3.1737  -22.3606   32.0073 O   0  0  0  0  0  0  0  0  0  0  0  0
    1.6067  -23.6242   32.1768 C   0  0  0  0  0  0  0  0  0  0  0  0
   -0.2681  -23.1889   33.0827 C   0  0  0  0  0  0  0  0  0  0  0  0
   -2.1815  -22.7765   33.2923 C   0  0  0  0  0  0  0  0  0  0  0  0
   -2.3687  -21.6602   32.9160 O   0  0  0  0  0  0  0  0  0  0  0  0
   -3.6879  -23.9694   33.7166 N   0  0  0  0  0  0  0  0  0  0  0  0
   -5.7417  -23.7883   33.4432 C   0  0  0  0  0  0  0  0  0  0  0  0
   -6.8148  -25.0883   33.5915 C   0  0  0  0  0  0  0  0  0  0  0  0
   -8.1144  -24.7912   33.5104 N   0  0  0  0  0  0  0  0  0  0  0  0
   -8.0504  -23.4935   33.2232 N   0  0  0  0  0  0  0  0  0  0  0  0
   -6.8037  -23.1995   32.6572 C   0  0  0  0  0  0  0  0  0  0  0  0
    1.3669  -22.5437   32.2725 C   0  0  0  0  0  0  0  0  0  0  0  0
    6.1850  -23.3623   24.3651 H   0  0  0  0  0  0  0  0  0  0  0  0
    4.5201  -22.7832   24.4762 H   0  0  0  0  0  0  0  0  0  0  0  0
    5.6588  -22.0732   23.3153 H   0  0  0  0  0  0  0  0  0  0  0  0
    6.8513  -20.9030   25.0032 H   0  0  0  0  0  0  0  0  0  0  0  0
    6.3677  -22.0765   26.2180 H   0  0  0  0  0  0  0  0  0  0  0  0
    3.9371  -20.9043   25.8883 H   0  0  0  0  0  0  0  0  0  0  0  0
    4.9193  -19.6318   25.2178 H   0  0  0  0  0  0  0  0  0  0  0  0
    4.1852  -22.7856   26.9140 H   0  0  0  0  0  0  0  0  0  0  0  0
    2.3745  -23.4155   29.0562 H   0  0  0  0  0  0  0  0  0  0  0  0
    5.2010  -19.4015   30.3074 H   0  0  0  0  0  0  0  0  0  0  0  0
    1.4807  -24.1807   31.1483 H   0  0  0  0  0  0  0  0  0  0  0  0
    2.1821  -24.4522   32.6890 H   0  0  0  0  0  0  0  0  0  0  0  0
   -3.3343  -24.8360   34.0939 H   0  0  0  0  0  0  0  0  0  0  0  0
   -6.5036  -26.1072   33.8068 H   0  0  0  0  0  0  0  0  0  0  0  0
   -8.9239  -23.0206   33.0244 H   0  0  0  0  0  0  0  0  0  0  0  0
   -6.9342  -23.2708   31.5954 H   0  0  0  0  0  0  0  0  0  0  0  0
    1.3369  -21.4498   32.2943 H   0  0  0  0  0  0  0  0  0  0  0  0
  1  2  1  0
  2  3  1  0
  3  4  1  0
  4  5  1  0
  5  6  2  0
  6  7  1  0
  7  8  2  0
  8  9  1  0
  9 10  2  0
  9 11  1  0
 11 12  1  0
 12 13  1  0
 13 14  1  0
 14 15  2  0
 14 16  1  0
 16 17  1  0
 17 18  1  0
 18 19  2  0
 19 20  1  0
 20 21  1  0
 13 22  2  0
 10  5  1  0
 21 17  2  0
 22  8  1  0
  1 23  1  0
  1 24  1  0
  1 25  1  0
  2 26  1  0
  2 27  1  0
  3 28  1  0
  3 29  1  0
  6 30  1  0
  7 31  1  0
 10 32  1  0
 12 33  1  0
 12 34  1  0
 16 35  1  0
 18 36  1  0
 20 37  1  0
 21 38  1  0
 22 39  1  0
M  END
>  <Energy>  (170) 
2263.8626572188059

>  <compound_id>  (170) 
27401

>  <target_id>  (170) 
1

>  <reference_id>  (170) 
96

>  <inspiration_ids>  (170) 
[89, 96]

>  <energy_score>  (170) 
2209.865015459211

>  <distance_score>  (170) 
4.646371441237279

>  <path>  (170) 
/opt/xchem-fragalysis-2/maxwin/BulkDock/SCRATCH/511020/C27401-P96/C27401-P96.minimised.mol

>  <scratch_subdir>  (170) 
/opt/xchem-fragalysis-2/maxwin/BulkDock/SCRATCH/511020/C27401-P96

>  <fragmenstein_runtime>  (170) 
19.267698526382446

>  <fragmenstein_outcome>  (170) 
too moved

>  <fragmenstein_mode>  (170) 
expansion

>  <fragmenstein_error>  (170) 


$$$$
C27402-P96
     RDKit          3D

 35 37  0  0  0  0  0  0  0  0999 V2000
   -7.9856  -23.1116   29.1790 O   0  0  0  0  0  0  0  0  0  0  0  0
   -8.1037  -22.1129   28.4393 C   0  0  0  0  0  0  0  0  0  0  0  0
   -6.8363  -21.1739   27.6129 N   0  0  0  0  0  0  0  0  0  0  0  0
   -4.9648  -21.4487   27.4833 C   0  0  0  0  0  0  0  0  0  0  0  0
   -3.0608  -22.0234   27.9224 C   0  0  0  0  0  0  0  0  0  0  0  0
   -1.0876  -21.2533   28.1477 C   0  0  0  0  0  0  0  0  0  0  0  0
   -1.0003  -19.5504   29.0086 C   0  0  0  0  0  0  0  0  0  0  0  0
   -0.4375  -18.4945   28.5240 N   0  0  0  0  0  0  0  0  0  0  0  0
   -0.3222  -19.1587   27.4681 N   0  0  0  0  0  0  0  0  0  0  0  0
   -0.1111  -20.5492   27.4766 C   0  0  0  0  0  0  0  0  0  0  0  0
   -9.6505  -21.8107   28.1924 C   0  0  0  0  0  0  0  0  0  0  0  0
  -10.4207  -21.1051   29.0450 C   0  0  0  0  0  0  0  0  0  0  0  0
  -11.3106  -21.9176   29.8989 C   0  0  0  0  0  0  0  0  0  0  0  0
  -11.7818  -21.3993   31.1119 C   0  0  0  0  0  0  0  0  0  0  0  0
  -12.4912  -22.2053   32.0051 C   0  0  0  0  0  0  0  0  0  0  0  0
  -12.7273  -23.5418   31.6948 C   0  0  0  0  0  0  0  0  0  0  0  0
  -12.2374  -24.0770   30.5068 C   0  0  0  0  0  0  0  0  0  0  0  0
  -11.5294  -23.2690   29.6180 C   0  0  0  0  0  0  0  0  0  0  0  0
  -11.0197  -23.8955   28.5176 O   0  0  0  0  0  0  0  0  0  0  0  0
  -10.3398  -23.0347   27.5974 C   0  0  0  0  0  0  0  0  0  0  0  0
   -7.2439  -20.3790   27.1588 H   0  0  0  0  0  0  0  0  0  0  0  0
   -5.1090  -21.9107   26.5193 H   0  0  0  0  0  0  0  0  0  0  0  0
   -5.2413  -22.0687   28.3084 H   0  0  0  0  0  0  0  0  0  0  0  0
   -3.3389  -22.0944   28.9992 H   0  0  0  0  0  0  0  0  0  0  0  0
   -2.8891  -23.0486   27.5486 H   0  0  0  0  0  0  0  0  0  0  0  0
   -1.7918  -19.2003   29.6408 H   0  0  0  0  0  0  0  0  0  0  0  0
   -0.8772  -18.7316   26.7684 H   0  0  0  0  0  0  0  0  0  0  0  0
    0.8064  -20.8545   26.9775 H   0  0  0  0  0  0  0  0  0  0  0  0
  -10.1142  -20.1684   29.4902 H   0  0  0  0  0  0  0  0  0  0  0  0
  -11.5544  -20.3764   31.3964 H   0  0  0  0  0  0  0  0  0  0  0  0
  -12.8391  -21.7941   32.9496 H   0  0  0  0  0  0  0  0  0  0  0  0
  -13.2821  -24.1722   32.3796 H   0  0  0  0  0  0  0  0  0  0  0  0
  -12.3867  -25.1274   30.2746 H   0  0  0  0  0  0  0  0  0  0  0  0
  -11.0688  -22.7115   26.8433 H   0  0  0  0  0  0  0  0  0  0  0  0
   -9.6268  -23.6584   27.0668 H   0  0  0  0  0  0  0  0  0  0  0  0
  1  2  2  0
  2  3  1  0
  3  4  1  0
  4  5  1  0
  5  6  1  0
  6  7  1  0
  7  8  2  0
  8  9  1  0
  9 10  1  0
  2 11  1  0
 11 12  2  0
 12 13  1  0
 13 14  2  0
 14 15  1  0
 15 16  2  0
 16 17  1  0
 17 18  2  0
 18 19  1  0
 19 20  1  0
 10  6  2  0
 20 11  1  0
 18 13  1  0
  3 21  1  0
  4 22  1  0
  4 23  1  0
  5 24  1  0
  5 25  1  0
  7 26  1  0
  9 27  1  0
 10 28  1  0
 12 29  1  0
 14 30  1  0
 15 31  1  0
 16 32  1  0
 17 33  1  0
 20 34  1  0
 20 35  1  0
M  END
>  <Energy>  (171) 
579.02652294924451

>  <compound_id>  (171) 
27402

>  <target_id>  (171) 
1

>  <reference_id>  (171) 
96

>  <inspiration_ids>  (171) 
[89, 96]

>  <energy_score>  (171) 
541.2675520215496

>  <distance_score>  (171) 
4.5870739956391215

>  <path>  (171) 
/opt/xchem-fragalysis-2/maxwin/BulkDock/SCRATCH/511020/C27402-P96/C27402-P96.minimised.mol

>  <scratch_subdir>  (171) 
/opt/xchem-fragalysis-2/maxwin/BulkDock/SCRATCH/511020/C27402-P96

>  <fragmenstein_runtime>  (171) 
27.18254280090332

>  <fragmenstein_outcome>  (171) 
too moved

>  <fragmenstein_mode>  (171) 
expansion

>  <fragmenstein_error>  (171) 


$$$$
C27399-P96
     RDKit          3D

 42 44  0  0  0  0  0  0  0  0999 V2000
    5.4361  -25.1650   28.9783 C   0  0  0  0  0  0  0  0  0  0  0  0
    4.0493  -25.3424   29.5909 C   0  0  0  0  0  0  0  0  0  0  0  0
    3.2157  -24.3333   30.1710 O   0  0  0  0  0  0  0  0  0  0  0  0
    3.1012  -23.1314   29.5430 C   0  0  0  0  0  0  0  0  0  0  0  0
    4.1172  -22.7743   28.0527 C   0  0  0  0  0  0  0  0  0  0  0  0
    4.7419  -21.0403   27.7367 C   0  0  0  0  0  0  0  0  0  0  0  0
    4.6239  -19.5454   28.7700 C   0  0  0  0  0  0  0  0  0  0  0  0
    3.2184  -19.6839   29.7670 C   0  0  0  0  0  0  0  0  0  0  0  0
    2.4547  -21.6740   30.5451 C   0  0  0  0  0  0  0  0  0  0  0  0
    2.0724  -18.4565   29.1376 C   0  0  0  0  0  0  0  0  0  0  0  0
    0.8291  -17.8354   29.4197 C   0  0  0  0  0  0  0  0  0  0  0  0
   -0.7012  -19.1700   28.9378 C   0  0  0  0  0  0  0  0  0  0  0  0
   -0.4331  -19.6791   27.9299 O   0  0  0  0  0  0  0  0  0  0  0  0
   -2.3431  -19.9824   29.7280 N   0  0  0  0  0  0  0  0  0  0  0  0
   -3.5020  -21.6546   29.1253 C   0  0  0  0  0  0  0  0  0  0  0  0
   -3.0257  -22.4502   27.7764 C   0  0  0  0  0  0  0  0  0  0  0  0
   -5.3945  -22.3271   28.7149 C   0  0  0  0  0  0  0  0  0  0  0  0
   -6.4120  -21.4379   27.7689 C   0  0  0  0  0  0  0  0  0  0  0  0
   -7.7564  -21.6128   28.0138 N   0  0  0  0  0  0  0  0  0  0  0  0
   -8.1310  -22.6838   28.8711 N   0  0  0  0  0  0  0  0  0  0  0  0
   -6.8091  -23.5005   29.2530 C   0  0  0  0  0  0  0  0  0  0  0  0
    2.5118  -17.7514   30.4369 C   0  0  0  0  0  0  0  0  0  0  0  0
    4.1994  -18.6634   30.3025 O   0  0  0  0  0  0  0  0  0  0  0  0
    6.0814  -25.9988   29.2821 H   0  0  0  0  0  0  0  0  0  0  0  0
    5.9321  -24.2342   29.2428 H   0  0  0  0  0  0  0  0  0  0  0  0
    5.4097  -25.2653   27.8929 H   0  0  0  0  0  0  0  0  0  0  0  0
    3.4392  -25.9386   28.9187 H   0  0  0  0  0  0  0  0  0  0  0  0
    4.2824  -25.9523   30.4576 H   0  0  0  0  0  0  0  0  0  0  0  0
    4.5356  -23.5246   27.4113 H   0  0  0  0  0  0  0  0  0  0  0  0
    5.3949  -20.9500   26.8605 H   0  0  0  0  0  0  0  0  0  0  0  0
    1.8042  -21.9455   31.3968 H   0  0  0  0  0  0  0  0  0  0  0  0
    2.4300  -19.1308   28.3224 H   0  0  0  0  0  0  0  0  0  0  0  0
   -2.5724  -19.4926   30.4931 H   0  0  0  0  0  0  0  0  0  0  0  0
   -3.9397  -21.1115   28.1585 H   0  0  0  0  0  0  0  0  0  0  0  0
   -2.8321  -23.5287   27.7829 H   0  0  0  0  0  0  0  0  0  0  0  0
   -3.8073  -22.3085   27.0312 H   0  0  0  0  0  0  0  0  0  0  0  0
   -2.0268  -22.0392   27.4985 H   0  0  0  0  0  0  0  0  0  0  0  0
   -6.0746  -20.6400   27.1220 H   0  0  0  0  0  0  0  0  0  0  0  0
   -9.0826  -23.0365   28.9048 H   0  0  0  0  0  0  0  0  0  0  0  0
   -7.0122  -24.5768   29.1957 H   0  0  0  0  0  0  0  0  0  0  0  0
    2.4775  -17.9479   31.5125 H   0  0  0  0  0  0  0  0  0  0  0  0
    2.8512  -16.7557   30.2854 H   0  0  0  0  0  0  0  0  0  0  0  0
  1  2  1  0
  2  3  1  0
  3  4  1  0
  4  5  2  0
  5  6  1  0
  6  7  2  0
  7  8  1  0
  8  9  2  0
  8 10  1  0
 10 11  2  0
 11 12  1  0
 12 13  2  0
 12 14  1  0
 14 15  1  0
 15 16  1  0
 15 17  1  0
 17 18  1  0
 18 19  2  0
 19 20  1  0
 20 21  1  0
 11 22  1  0
 22 23  1  0
  9  4  1  0
 21 17  2  0
 23  7  1  0
  1 24  1  0
  1 25  1  0
  1 26  1  0
  2 27  1  0
  2 28  1  0
  5 29  1  0
  6 30  1  0
  9 31  1  0
 10 32  1  0
 14 33  1  0
 15 34  1  0
 16 35  1  0
 16 36  1  0
 16 37  1  0
 18 38  1  0
 20 39  1  0
 21 40  1  0
 22 41  1  0
 22 42  1  0
M  END
>  <Energy>  (172) 
1952.5046024154567

>  <compound_id>  (172) 
27399

>  <target_id>  (172) 
1

>  <reference_id>  (172) 
96

>  <inspiration_ids>  (172) 
[89, 96]

>  <energy_score>  (172) 
1922.507596831886

>  <distance_score>  (172) 
3.6009350367062765

>  <path>  (172) 
/opt/xchem-fragalysis-2/maxwin/BulkDock/SCRATCH/511020/C27399-P96/C27399-P96.minimised.mol

>  <scratch_subdir>  (172) 
/opt/xchem-fragalysis-2/maxwin/BulkDock/SCRATCH/511020/C27399-P96

>  <fragmenstein_runtime>  (172) 
16.99892783164978

>  <fragmenstein_outcome>  (172) 
too moved

>  <fragmenstein_mode>  (172) 
expansion

>  <fragmenstein_error>  (172) 


$$$$
C27404-P96
     RDKit          3D

 35 37  0  0  0  0  0  0  0  0999 V2000
    0.6832  -22.0554   25.5345 O   0  0  0  0  0  0  0  0  0  0  0  0
    0.9396  -21.4001   26.4947 C   0  0  0  0  0  0  0  0  0  0  0  0
   -0.7189  -21.2344   27.7123 N   0  0  0  0  0  0  0  0  0  0  0  0
   -2.6545  -22.1207   27.6608 C   0  0  0  0  0  0  0  0  0  0  0  0
   -4.4452  -22.2620   28.8044 C   0  0  0  0  0  0  0  0  0  0  0  0
   -6.2440  -23.3689   28.9748 C   0  0  0  0  0  0  0  0  0  0  0  0
   -6.9497  -25.0025   28.9375 C   0  0  0  0  0  0  0  0  0  0  0  0
   -8.2333  -25.2327   29.1968 N   0  0  0  0  0  0  0  0  0  0  0  0
   -8.7155  -24.0741   29.5516 N   0  0  0  0  0  0  0  0  0  0  0  0
   -7.9170  -23.0450   29.2036 C   0  0  0  0  0  0  0  0  0  0  0  0
    2.8759  -20.9882   26.4705 C   0  0  0  0  0  0  0  0  0  0  0  0
    3.7751  -22.1424   26.6760 C   0  0  0  0  0  0  0  0  0  0  0  0
    5.2446  -22.3261   26.5794 C   0  0  0  0  0  0  0  0  0  0  0  0
    5.8575  -23.5336   26.8788 C   0  0  0  0  0  0  0  0  0  0  0  0
    6.6178  -24.1088   25.8717 C   0  0  0  0  0  0  0  0  0  0  0  0
    7.1890  -25.8995   26.0467 Br  0  0  0  0  0  0  0  0  0  0  0  0
    6.8136  -23.4202   24.6778 C   0  0  0  0  0  0  0  0  0  0  0  0
    6.4492  -22.0682   24.5979 C   0  0  0  0  0  0  0  0  0  0  0  0
    5.7803  -21.4941   25.6548 C   0  0  0  0  0  0  0  0  0  0  0  0
    5.2550  -20.2442   25.6786 O   0  0  0  0  0  0  0  0  0  0  0  0
    3.8797  -20.4484   25.3327 C   0  0  0  0  0  0  0  0  0  0  0  0
   -0.4571  -20.7659   28.5211 H   0  0  0  0  0  0  0  0  0  0  0  0
   -3.4317  -21.5733   27.1499 H   0  0  0  0  0  0  0  0  0  0  0  0
   -2.4973  -23.2050   27.3980 H   0  0  0  0  0  0  0  0  0  0  0  0
   -5.0120  -21.8311   27.9262 H   0  0  0  0  0  0  0  0  0  0  0  0
   -3.9775  -23.0453   29.2907 H   0  0  0  0  0  0  0  0  0  0  0  0
   -6.3161  -25.7985   28.5860 H   0  0  0  0  0  0  0  0  0  0  0  0
   -9.6990  -24.0291   29.7926 H   0  0  0  0  0  0  0  0  0  0  0  0
   -8.3854  -22.1533   28.7990 H   0  0  0  0  0  0  0  0  0  0  0  0
    3.4334  -23.0336   27.1901 H   0  0  0  0  0  0  0  0  0  0  0  0
    5.5128  -24.1416   27.7103 H   0  0  0  0  0  0  0  0  0  0  0  0
    7.3016  -23.8999   23.8355 H   0  0  0  0  0  0  0  0  0  0  0  0
    6.6478  -21.4876   23.7067 H   0  0  0  0  0  0  0  0  0  0  0  0
    3.7006  -19.5722   24.7569 H   0  0  0  0  0  0  0  0  0  0  0  0
    3.9238  -21.2268   24.5816 H   0  0  0  0  0  0  0  0  0  0  0  0
  1  2  2  0
  2  3  1  0
  3  4  1  0
  4  5  1  0
  5  6  1  0
  6  7  1  0
  7  8  2  0
  8  9  1  0
  9 10  1  0
  2 11  1  0
 11 12  2  0
 12 13  1  0
 13 14  2  0
 14 15  1  0
 15 16  1  0
 15 17  2  0
 17 18  1  0
 18 19  2  0
 19 20  1  0
 20 21  1  0
 10  6  2  0
 21 11  1  0
 19 13  1  0
  3 22  1  0
  4 23  1  0
  4 24  1  0
  5 25  1  0
  5 26  1  0
  7 27  1  0
  9 28  1  0
 10 29  1  0
 12 30  1  0
 14 31  1  0
 17 32  1  0
 18 33  1  0
 21 34  1  0
 21 35  1  0
M  END
>  <Energy>  (173) 
922.46148024248498

>  <compound_id>  (173) 
27404

>  <target_id>  (173) 
1

>  <reference_id>  (173) 
96

>  <inspiration_ids>  (173) 
[89, 96]

>  <energy_score>  (173) 
889.0798791246973

>  <distance_score>  (173) 
4.7199503078575225

>  <path>  (173) 
/opt/xchem-fragalysis-2/maxwin/BulkDock/SCRATCH/511020/C27404-P96/C27404-P96.minimised.mol

>  <scratch_subdir>  (173) 
/opt/xchem-fragalysis-2/maxwin/BulkDock/SCRATCH/511020/C27404-P96

>  <fragmenstein_runtime>  (173) 
22.40889024734497

>  <fragmenstein_outcome>  (173) 
too moved

>  <fragmenstein_mode>  (173) 
expansion

>  <fragmenstein_error>  (173) 


$$$$
C27396-P96
     RDKit          3D

 41 43  0  0  0  0  0  0  0  0999 V2000
   -7.9149  -24.3043   29.1220 O   0  0  0  0  0  0  0  0  0  0  0  0
   -8.4953  -23.2453   29.0582 C   0  0  0  0  0  0  0  0  0  0  0  0
   -8.1084  -21.9453   28.3674 N   0  0  0  0  0  0  0  0  0  0  0  0
   -6.6346  -21.4803   27.5186 C   0  0  0  0  0  0  0  0  0  0  0  0
   -4.7745  -21.5209   27.6400 C   0  0  0  0  0  0  0  0  0  0  0  0
   -2.8449  -22.0880   27.7825 C   0  0  0  0  0  0  0  0  0  0  0  0
   -0.8682  -21.1592   27.8621 C   0  0  0  0  0  0  0  0  0  0  0  0
    0.9958  -20.8350   27.0731 C   0  0  0  0  0  0  0  0  0  0  0  0
    2.3939  -20.0254   27.1239 C   0  0  0  0  0  0  0  0  0  0  0  0
    3.5504  -20.3197   26.4627 N   0  0  0  0  0  0  0  0  0  0  0  0
    3.1745  -21.4442   25.9348 N   0  0  0  0  0  0  0  0  0  0  0  0
    1.8921  -21.7133   26.5538 C   0  0  0  0  0  0  0  0  0  0  0  0
   -9.7352  -23.2493   29.9010 C   0  0  0  0  0  0  0  0  0  0  0  0
  -10.7106  -22.3324   29.9779 C   0  0  0  0  0  0  0  0  0  0  0  0
  -11.3540  -22.2536   31.3032 C   0  0  0  0  0  0  0  0  0  0  0  0
  -12.4608  -21.4499   31.5320 C   0  0  0  0  0  0  0  0  0  0  0  0
  -12.9527  -21.2616   32.8201 C   0  0  0  0  0  0  0  0  0  0  0  0
  -14.5247  -20.2545   33.1211 Br  0  0  0  0  0  0  0  0  0  0  0  0
  -12.2837  -21.8046   33.9019 C   0  0  0  0  0  0  0  0  0  0  0  0
  -11.1598  -22.5883   33.7022 C   0  0  0  0  0  0  0  0  0  0  0  0
  -10.7405  -22.8557   32.4119 C   0  0  0  0  0  0  0  0  0  0  0  0
   -9.6814  -23.7069   32.2958 O   0  0  0  0  0  0  0  0  0  0  0  0
   -9.6636  -24.3100   30.9973 C   0  0  0  0  0  0  0  0  0  0  0  0
   -8.8713  -21.2833   28.4488 H   0  0  0  0  0  0  0  0  0  0  0  0
   -6.8354  -21.8107   26.5046 H   0  0  0  0  0  0  0  0  0  0  0  0
   -6.8154  -20.4217   27.5880 H   0  0  0  0  0  0  0  0  0  0  0  0
   -4.8807  -21.9945   26.6706 H   0  0  0  0  0  0  0  0  0  0  0  0
   -5.0107  -22.1136   28.5171 H   0  0  0  0  0  0  0  0  0  0  0  0
   -3.2464  -21.4588   27.0992 H   0  0  0  0  0  0  0  0  0  0  0  0
   -3.1920  -22.0473   28.8603 H   0  0  0  0  0  0  0  0  0  0  0  0
   -0.4556  -21.5602   28.7633 H   0  0  0  0  0  0  0  0  0  0  0  0
   -0.7976  -20.0528   28.1303 H   0  0  0  0  0  0  0  0  0  0  0  0
    2.6146  -19.4205   27.9597 H   0  0  0  0  0  0  0  0  0  0  0  0
    3.8292  -22.0552   25.4469 H   0  0  0  0  0  0  0  0  0  0  0  0
    2.0601  -22.5583   27.2100 H   0  0  0  0  0  0  0  0  0  0  0  0
  -10.8419  -21.5120   29.2816 H   0  0  0  0  0  0  0  0  0  0  0  0
  -12.9173  -20.9465   30.7050 H   0  0  0  0  0  0  0  0  0  0  0  0
  -12.6305  -21.6328   34.9083 H   0  0  0  0  0  0  0  0  0  0  0  0
  -10.6273  -22.9980   34.5532 H   0  0  0  0  0  0  0  0  0  0  0  0
   -8.7671  -24.9320   30.9921 H   0  0  0  0  0  0  0  0  0  0  0  0
  -10.5057  -25.0105   30.9014 H   0  0  0  0  0  0  0  0  0  0  0  0
  1  2  2  0
  2  3  1  0
  3  4  1  0
  4  5  1  0
  5  6  1  0
  6  7  1  0
  7  8  1  0
  8  9  1  0
  9 10  2  0
 10 11  1  0
 11 12  1  0
  2 13  1  0
 13 14  2  0
 14 15  1  0
 15 16  2  0
 16 17  1  0
 17 18  1  0
 17 19  2  0
 19 20  1  0
 20 21  2  0
 21 22  1  0
 22 23  1  0
 12  8  2  0
 23 13  1  0
 21 15  1  0
  3 24  1  0
  4 25  1  0
  4 26  1  0
  5 27  1  0
  5 28  1  0
  6 29  1  0
  6 30  1  0
  7 31  1  0
  7 32  1  0
  9 33  1  0
 11 34  1  0
 12 35  1  0
 14 36  1  0
 16 37  1  0
 19 38  1  0
 20 39  1  0
 23 40  1  0
 23 41  1  0
M  END
>  <Energy>  (174) 
664.36246720691395

>  <compound_id>  (174) 
27396

>  <target_id>  (174) 
1

>  <reference_id>  (174) 
96

>  <inspiration_ids>  (174) 
[89, 96]

>  <energy_score>  (174) 
632.6064193923896

>  <distance_score>  (174) 
3.690053467693113

>  <path>  (174) 
/opt/xchem-fragalysis-2/maxwin/BulkDock/SCRATCH/511020/C27396-P96/C27396-P96.minimised.mol

>  <scratch_subdir>  (174) 
/opt/xchem-fragalysis-2/maxwin/BulkDock/SCRATCH/511020/C27396-P96

>  <fragmenstein_runtime>  (174) 
51.83074140548706

>  <fragmenstein_outcome>  (174) 
too moved

>  <fragmenstein_mode>  (174) 
expansion

>  <fragmenstein_error>  (174) 


$$$$
C27404-P96
     RDKit          3D

 35 37  0  0  0  0  0  0  0  0999 V2000
    0.6832  -22.0554   25.5345 O   0  0  0  0  0  0  0  0  0  0  0  0
    0.9396  -21.4001   26.4947 C   0  0  0  0  0  0  0  0  0  0  0  0
   -0.7189  -21.2344   27.7123 N   0  0  0  0  0  0  0  0  0  0  0  0
   -2.6545  -22.1207   27.6608 C   0  0  0  0  0  0  0  0  0  0  0  0
   -4.4452  -22.2620   28.8044 C   0  0  0  0  0  0  0  0  0  0  0  0
   -6.2440  -23.3689   28.9748 C   0  0  0  0  0  0  0  0  0  0  0  0
   -6.9497  -25.0025   28.9375 C   0  0  0  0  0  0  0  0  0  0  0  0
   -8.2333  -25.2327   29.1968 N   0  0  0  0  0  0  0  0  0  0  0  0
   -8.7155  -24.0741   29.5516 N   0  0  0  0  0  0  0  0  0  0  0  0
   -7.9170  -23.0450   29.2036 C   0  0  0  0  0  0  0  0  0  0  0  0
    2.8759  -20.9882   26.4705 C   0  0  0  0  0  0  0  0  0  0  0  0
    3.7751  -22.1424   26.6760 C   0  0  0  0  0  0  0  0  0  0  0  0
    5.2446  -22.3261   26.5794 C   0  0  0  0  0  0  0  0  0  0  0  0
    5.8575  -23.5336   26.8788 C   0  0  0  0  0  0  0  0  0  0  0  0
    6.6178  -24.1088   25.8717 C   0  0  0  0  0  0  0  0  0  0  0  0
    7.1890  -25.8995   26.0467 Br  0  0  0  0  0  0  0  0  0  0  0  0
    6.8136  -23.4202   24.6778 C   0  0  0  0  0  0  0  0  0  0  0  0
    6.4492  -22.0682   24.5979 C   0  0  0  0  0  0  0  0  0  0  0  0
    5.7803  -21.4941   25.6548 C   0  0  0  0  0  0  0  0  0  0  0  0
    5.2550  -20.2442   25.6786 O   0  0  0  0  0  0  0  0  0  0  0  0
    3.8797  -20.4484   25.3327 C   0  0  0  0  0  0  0  0  0  0  0  0
   -0.4571  -20.7659   28.5211 H   0  0  0  0  0  0  0  0  0  0  0  0
   -3.4317  -21.5733   27.1499 H   0  0  0  0  0  0  0  0  0  0  0  0
   -2.4973  -23.2050   27.3980 H   0  0  0  0  0  0  0  0  0  0  0  0
   -5.0120  -21.8311   27.9262 H   0  0  0  0  0  0  0  0  0  0  0  0
   -3.9775  -23.0453   29.2907 H   0  0  0  0  0  0  0  0  0  0  0  0
   -6.3161  -25.7985   28.5860 H   0  0  0  0  0  0  0  0  0  0  0  0
   -9.6990  -24.0291   29.7926 H   0  0  0  0  0  0  0  0  0  0  0  0
   -8.3854  -22.1533   28.7990 H   0  0  0  0  0  0  0  0  0  0  0  0
    3.4334  -23.0336   27.1901 H   0  0  0  0  0  0  0  0  0  0  0  0
    5.5128  -24.1416   27.7103 H   0  0  0  0  0  0  0  0  0  0  0  0
    7.3016  -23.8999   23.8355 H   0  0  0  0  0  0  0  0  0  0  0  0
    6.6478  -21.4876   23.7067 H   0  0  0  0  0  0  0  0  0  0  0  0
    3.7006  -19.5722   24.7569 H   0  0  0  0  0  0  0  0  0  0  0  0
    3.9238  -21.2268   24.5816 H   0  0  0  0  0  0  0  0  0  0  0  0
  1  2  2  0
  2  3  1  0
  3  4  1  0
  4  5  1  0
  5  6  1  0
  6  7  1  0
  7  8  2  0
  8  9  1  0
  9 10  1  0
  2 11  1  0
 11 12  2  0
 12 13  1  0
 13 14  2  0
 14 15  1  0
 15 16  1  0
 15 17  2  0
 17 18  1  0
 18 19  2  0
 19 20  1  0
 20 21  1  0
 10  6  2  0
 21 11  1  0
 19 13  1  0
  3 22  1  0
  4 23  1  0
  4 24  1  0
  5 25  1  0
  5 26  1  0
  7 27  1  0
  9 28  1  0
 10 29  1  0
 12 30  1  0
 14 31  1  0
 17 32  1  0
 18 33  1  0
 21 34  1  0
 21 35  1  0
M  END
>  <Energy>  (175) 
922.46148024248498

>  <compound_id>  (175) 
27404

>  <target_id>  (175) 
1

>  <reference_id>  (175) 
96

>  <inspiration_ids>  (175) 
[89, 96]

>  <energy_score>  (175) 
889.0798791246973

>  <distance_score>  (175) 
4.7199503078575225

>  <path>  (175) 
/opt/xchem-fragalysis-2/maxwin/BulkDock/SCRATCH/511020/C27404-P96/C27404-P96.minimised.mol

>  <scratch_subdir>  (175) 
/opt/xchem-fragalysis-2/maxwin/BulkDock/SCRATCH/511020/C27404-P96

>  <fragmenstein_runtime>  (175) 
21.71182894706726

>  <fragmenstein_outcome>  (175) 
too moved

>  <fragmenstein_mode>  (175) 
expansion

>  <fragmenstein_error>  (175) 


$$$$
C27405-P96
     RDKit          3D

 39 41  0  0  0  0  0  0  0  0999 V2000
    5.8524  -23.4201   24.5793 Br  0  0  0  0  0  0  0  0  0  0  0  0
    5.2141  -21.8618   25.3925 C   0  0  0  0  0  0  0  0  0  0  0  0
    5.8589  -20.7408   25.0183 C   0  0  0  0  0  0  0  0  0  0  0  0
    5.3788  -19.6058   25.5855 C   0  0  0  0  0  0  0  0  0  0  0  0
    5.0085  -19.7744   26.8865 C   0  0  0  0  0  0  0  0  0  0  0  0
    3.8733  -20.3760   26.8566 C   0  0  0  0  0  0  0  0  0  0  0  0
    4.1368  -21.6640   26.2709 C   0  0  0  0  0  0  0  0  0  0  0  0
    2.8414  -19.6828   27.8891 C   0  0  0  0  0  0  0  0  0  0  0  0
    3.1993  -19.6061   29.5753 C   0  0  0  0  0  0  0  0  0  0  0  0
    2.2469  -21.6126   30.5049 C   0  0  0  0  0  0  0  0  0  0  0  0
    0.6642  -22.1359   29.3679 N   0  0  0  0  0  0  0  0  0  0  0  0
   -1.0319  -21.4433   28.5501 C   0  0  0  0  0  0  0  0  0  0  0  0
   -3.1719  -22.0903   28.4585 C   0  0  0  0  0  0  0  0  0  0  0  0
   -5.1241  -22.5568   29.0512 C   0  0  0  0  0  0  0  0  0  0  0  0
   -6.9076  -23.6407   29.4023 C   0  0  0  0  0  0  0  0  0  0  0  0
   -7.8936  -23.4695   30.5924 C   0  0  0  0  0  0  0  0  0  0  0  0
   -9.0694  -24.0860   30.4989 N   0  0  0  0  0  0  0  0  0  0  0  0
   -8.8729  -24.8944   29.4781 N   0  0  0  0  0  0  0  0  0  0  0  0
   -7.5905  -24.8500   29.0109 C   0  0  0  0  0  0  0  0  0  0  0  0
    4.8724  -19.3392   29.3909 C   0  0  0  0  0  0  0  0  0  0  0  0
    5.4662  -19.2243   28.0388 O   0  0  0  0  0  0  0  0  0  0  0  0
    6.6018  -20.7165   24.2379 H   0  0  0  0  0  0  0  0  0  0  0  0
    5.6558  -18.6542   25.1531 H   0  0  0  0  0  0  0  0  0  0  0  0
    3.6496  -22.5587   26.5993 H   0  0  0  0  0  0  0  0  0  0  0  0
    2.4982  -18.7845   28.4234 H   0  0  0  0  0  0  0  0  0  0  0  0
    1.7431  -21.7418   31.5277 H   0  0  0  0  0  0  0  0  0  0  0  0
    2.7154  -22.6731   30.4076 H   0  0  0  0  0  0  0  0  0  0  0  0
    1.1710  -22.2165   28.4835 H   0  0  0  0  0  0  0  0  0  0  0  0
   -0.9777  -21.4163   27.4950 H   0  0  0  0  0  0  0  0  0  0  0  0
   -0.7754  -20.3472   28.6625 H   0  0  0  0  0  0  0  0  0  0  0  0
   -3.1402  -21.8724   29.5264 H   0  0  0  0  0  0  0  0  0  0  0  0
   -2.9991  -22.9847   27.8351 H   0  0  0  0  0  0  0  0  0  0  0  0
   -5.5705  -21.8852   28.2454 H   0  0  0  0  0  0  0  0  0  0  0  0
   -4.9676  -22.3634   30.0517 H   0  0  0  0  0  0  0  0  0  0  0  0
   -7.7669  -22.9075   31.5065 H   0  0  0  0  0  0  0  0  0  0  0  0
   -9.6032  -25.5555   29.2418 H   0  0  0  0  0  0  0  0  0  0  0  0
   -7.2815  -25.6642   28.3819 H   0  0  0  0  0  0  0  0  0  0  0  0
    5.5462  -20.0065   29.8670 H   0  0  0  0  0  0  0  0  0  0  0  0
    5.0224  -18.4947   30.0972 H   0  0  0  0  0  0  0  0  0  0  0  0
  1  2  1  0
  2  3  2  0
  3  4  1  0
  4  5  2  0
  5  6  1  0
  6  7  2  0
  6  8  1  0
  8  9  2  0
  9 10  1  0
 10 11  1  0
 11 12  1  0
 12 13  1  0
 13 14  1  0
 14 15  1  0
 15 16  1  0
 16 17  2  0
 17 18  1  0
 18 19  1  0
  9 20  1  0
 20 21  1  0
  7  2  1  0
 19 15  2  0
 21  5  1  0
  3 22  1  0
  4 23  1  0
  7 24  1  0
  8 25  1  0
 10 26  1  0
 10 27  1  0
 11 28  1  0
 12 29  1  0
 12 30  1  0
 13 31  1  0
 13 32  1  0
 14 33  1  0
 14 34  1  0
 16 35  1  0
 18 36  1  0
 19 37  1  0
 20 38  1  0
 20 39  1  0
M  END
>  <Energy>  (176) 
1335.6540867587496

>  <compound_id>  (176) 
27405

>  <target_id>  (176) 
1

>  <reference_id>  (176) 
96

>  <inspiration_ids>  (176) 
[89, 96]

>  <energy_score>  (176) 
1278.3658193987867

>  <distance_score>  (176) 
3.1847818669478984

>  <path>  (176) 
/opt/xchem-fragalysis-2/maxwin/BulkDock/SCRATCH/511020/C27405-P96/C27405-P96.minimised.mol

>  <scratch_subdir>  (176) 
/opt/xchem-fragalysis-2/maxwin/BulkDock/SCRATCH/511020/C27405-P96

>  <fragmenstein_runtime>  (176) 
10.878174304962158

>  <fragmenstein_outcome>  (176) 
too moved

>  <fragmenstein_mode>  (176) 
expansion

>  <fragmenstein_error>  (176) 


$$$$
C9292-P96
     RDKit          3D

 38 40  0  0  0  0  0  0  0  0999 V2000
    0.8487  -21.6723   32.9002 O   0  0  0  0  0  0  0  0  0  0  0  0
    1.4649  -21.3153   31.9936 C   0  0  0  0  0  0  0  0  0  0  0  0
    0.2002  -21.4487   30.2443 O   0  0  0  0  0  0  0  0  0  0  0  0
   -2.1715  -21.8672   29.9957 C   0  0  0  0  0  0  0  0  0  0  0  0
   -3.9102  -22.3738   29.2011 C   0  0  0  0  0  0  0  0  0  0  0  0
   -5.2714  -22.7561   30.5931 N   0  0  0  0  0  0  0  0  0  0  0  0
   -7.0087  -23.4429   30.4628 C   0  0  0  0  0  0  0  0  0  0  0  0
   -7.5929  -23.7890   29.4417 O   0  0  0  0  0  0  0  0  0  0  0  0
   -7.8818  -23.5116   31.6465 C   0  0  0  0  0  0  0  0  0  0  0  0
   -7.7684  -23.7419   32.9893 C   0  0  0  0  0  0  0  0  0  0  0  0
   -9.0624  -23.5909   33.5156 C   0  0  0  0  0  0  0  0  0  0  0  0
   -9.9724  -23.3711   32.5683 N   0  0  0  0  0  0  0  0  0  0  0  0
   -9.2474  -23.4387   31.4439 N   0  0  0  0  0  0  0  0  0  0  0  0
    3.5240  -20.6079   32.7985 C   0  0  0  0  0  0  0  0  0  0  0  0
    4.3456  -19.2122   31.8828 C   0  0  0  0  0  0  0  0  0  0  0  0
    3.3588  -19.6392   29.9687 C   0  0  0  0  0  0  0  0  0  0  0  0
    2.5864  -21.7266   30.5299 C   0  0  0  0  0  0  0  0  0  0  0  0
    3.2779  -23.1027   29.3792 C   0  0  0  0  0  0  0  0  0  0  0  0
    3.3637  -24.7147   30.0064 Cl  0  0  0  0  0  0  0  0  0  0  0  0
    4.3192  -22.5811   27.9221 C   0  0  0  0  0  0  0  0  0  0  0  0
    4.9152  -20.7937   27.8233 C   0  0  0  0  0  0  0  0  0  0  0  0
    4.5539  -19.4637   29.0306 C   0  0  0  0  0  0  0  0  0  0  0  0
    4.9726  -18.4732   30.3332 O   0  0  0  0  0  0  0  0  0  0  0  0
    3.8766  -18.5864   31.9914 C   0  0  0  0  0  0  0  0  0  0  0  0
   -2.5867  -21.7527   31.2192 H   0  0  0  0  0  0  0  0  0  0  0  0
   -2.9508  -20.7898   30.1529 H   0  0  0  0  0  0  0  0  0  0  0  0
   -4.2270  -21.8426   28.2766 H   0  0  0  0  0  0  0  0  0  0  0  0
   -3.4299  -23.1691   28.7238 H   0  0  0  0  0  0  0  0  0  0  0  0
   -5.0114  -22.6306   31.6177 H   0  0  0  0  0  0  0  0  0  0  0  0
   -6.8858  -23.9939   33.5356 H   0  0  0  0  0  0  0  0  0  0  0  0
   -9.3711  -23.6420   34.5505 H   0  0  0  0  0  0  0  0  0  0  0  0
   -9.7152  -23.3760   30.5446 H   0  0  0  0  0  0  0  0  0  0  0  0
    5.4791  -19.3146   31.8274 H   0  0  0  0  0  0  0  0  0  0  0  0
    1.6985  -22.4208   30.4390 H   0  0  0  0  0  0  0  0  0  0  0  0
    4.8539  -23.3278   27.3414 H   0  0  0  0  0  0  0  0  0  0  0  0
    5.7108  -20.6325   27.0966 H   0  0  0  0  0  0  0  0  0  0  0  0
    2.9296  -18.0087   31.5024 H   0  0  0  0  0  0  0  0  0  0  0  0
    3.9406  -17.6371   32.6590 H   0  0  0  0  0  0  0  0  0  0  0  0
  1  2  2  0
  2  3  1  0
  3  4  1  0
  4  5  1  0
  5  6  1  0
  6  7  1  0
  7  8  2  0
  7  9  1  0
  9 10  2  0
 10 11  1  0
 11 12  2  0
 12 13  1  0
  2 14  1  0
 14 15  2  0
 15 16  1  0
 16 17  2  0
 17 18  1  0
 18 19  1  0
 18 20  2  0
 20 21  1  0
 21 22  2  0
 22 23  1  0
 23 24  1  0
 13  9  1  0
 24 14  1  0
 22 16  1  0
  4 25  1  0
  4 26  1  0
  5 27  1  0
  5 28  1  0
  6 29  1  0
 10 30  1  0
 11 31  1  0
 13 32  1  0
 15 33  1  0
 17 34  1  0
 20 35  1  0
 21 36  1  0
 24 37  1  0
 24 38  1  0
M  END
>  <Energy>  (177) 
3177.5135958641868

>  <compound_id>  (177) 
9292

>  <target_id>  (177) 
1

>  <reference_id>  (177) 
96

>  <inspiration_ids>  (177) 
[89, 96]

>  <energy_score>  (177) 
3170.1379750027963

>  <distance_score>  (177) 
2.993030787124282

>  <path>  (177) 
/opt/xchem-fragalysis-2/maxwin/BulkDock/SCRATCH/511020/C9292-P96/C9292-P96.minimised.mol

>  <scratch_subdir>  (177) 
/opt/xchem-fragalysis-2/maxwin/BulkDock/SCRATCH/511020/C9292-P96

>  <fragmenstein_runtime>  (177) 
20.825724363327026

>  <fragmenstein_outcome>  (177) 
too moved

>  <fragmenstein_mode>  (177) 
expansion

>  <fragmenstein_error>  (177) 


$$$$
C27408-P96
     RDKit          3D

 44 46  0  0  0  0  0  0  0  0999 V2000
   -8.3342  -23.8627   33.5208 C   0  0  0  0  0  0  0  0  0  0  0  0
   -8.7889  -25.1352   32.8331 C   0  0  0  0  0  0  0  0  0  0  0  0
  -10.1915  -25.1704   32.5724 O   0  0  0  0  0  0  0  0  0  0  0  0
  -10.6824  -24.1532   31.8149 C   0  0  0  0  0  0  0  0  0  0  0  0
  -11.3776  -23.1070   32.4213 C   0  0  0  0  0  0  0  0  0  0  0  0
  -11.7477  -21.9953   31.6657 C   0  0  0  0  0  0  0  0  0  0  0  0
  -11.3355  -21.8975   30.3358 C   0  0  0  0  0  0  0  0  0  0  0  0
  -10.6213  -22.9519   29.7514 C   0  0  0  0  0  0  0  0  0  0  0  0
  -10.4400  -24.1458   30.4582 C   0  0  0  0  0  0  0  0  0  0  0  0
   -9.8530  -25.2663   29.9276 O   0  0  0  0  0  0  0  0  0  0  0  0
   -9.2140  -25.0263   28.6847 C   0  0  0  0  0  0  0  0  0  0  0  0
   -8.7268  -23.6196   28.5620 C   0  0  0  0  0  0  0  0  0  0  0  0
   -7.3870  -23.4474   29.3509 C   0  0  0  0  0  0  0  0  0  0  0  0
   -7.4978  -23.6759   30.5614 O   0  0  0  0  0  0  0  0  0  0  0  0
   -5.7794  -22.8232   28.7056 O   0  0  0  0  0  0  0  0  0  0  0  0
   -4.6847  -21.7376   27.6231 C   0  0  0  0  0  0  0  0  0  0  0  0
   -2.7904  -22.1372   27.8730 C   0  0  0  0  0  0  0  0  0  0  0  0
   -0.7900  -21.4919   28.4712 C   0  0  0  0  0  0  0  0  0  0  0  0
    0.8336  -22.3809   29.4530 C   0  0  0  0  0  0  0  0  0  0  0  0
    2.1356  -23.2558   29.2226 C   0  0  0  0  0  0  0  0  0  0  0  0
    2.5748  -24.1999   30.0613 N   0  0  0  0  0  0  0  0  0  0  0  0
    2.1782  -23.6311   31.1392 N   0  0  0  0  0  0  0  0  0  0  0  0
    1.5998  -22.4229   30.8200 C   0  0  0  0  0  0  0  0  0  0  0  0
   -9.6863  -22.6769   28.6313 C   0  0  0  0  0  0  0  0  0  0  0  0
   -7.2689  -23.9230   33.7328 H   0  0  0  0  0  0  0  0  0  0  0  0
   -8.4997  -22.9740   32.9055 H   0  0  0  0  0  0  0  0  0  0  0  0
   -8.8775  -23.7123   34.4590 H   0  0  0  0  0  0  0  0  0  0  0  0
   -8.2316  -25.3611   31.9286 H   0  0  0  0  0  0  0  0  0  0  0  0
   -8.5869  -25.9719   33.5119 H   0  0  0  0  0  0  0  0  0  0  0  0
  -11.5829  -23.1280   33.4876 H   0  0  0  0  0  0  0  0  0  0  0  0
  -12.2673  -21.1677   32.1403 H   0  0  0  0  0  0  0  0  0  0  0  0
  -11.4727  -20.9611   29.7980 H   0  0  0  0  0  0  0  0  0  0  0  0
   -8.3594  -25.6910   28.5935 H   0  0  0  0  0  0  0  0  0  0  0  0
   -9.9037  -25.2836   27.8707 H   0  0  0  0  0  0  0  0  0  0  0  0
   -5.0381  -22.0303   26.6366 H   0  0  0  0  0  0  0  0  0  0  0  0
   -5.0716  -20.7250   27.6501 H   0  0  0  0  0  0  0  0  0  0  0  0
   -2.6783  -23.1945   27.5224 H   0  0  0  0  0  0  0  0  0  0  0  0
   -3.2489  -22.1812   28.9197 H   0  0  0  0  0  0  0  0  0  0  0  0
   -0.3576  -20.9952   27.6502 H   0  0  0  0  0  0  0  0  0  0  0  0
   -0.7546  -20.4419   28.8456 H   0  0  0  0  0  0  0  0  0  0  0  0
    2.8417  -23.1525   28.4004 H   0  0  0  0  0  0  0  0  0  0  0  0
    2.2501  -24.0980   32.0344 H   0  0  0  0  0  0  0  0  0  0  0  0
    1.4564  -21.8494   31.7273 H   0  0  0  0  0  0  0  0  0  0  0  0
   -9.4738  -21.6219   28.5186 H   0  0  0  0  0  0  0  0  0  0  0  0
  1  2  1  0
  2  3  1  0
  3  4  1  0
  4  5  2  0
  5  6  1  0
  6  7  2  0
  7  8  1  0
  8  9  2  0
  9 10  1  0
 10 11  1  0
 11 12  1  0
 12 13  1  0
 13 14  2  0
 13 15  1  0
 15 16  1  0
 16 17  1  0
 17 18  1  0
 18 19  1  0
 19 20  1  0
 20 21  2  0
 21 22  1  0
 22 23  1  0
 12 24  2  0
  9  4  1  0
 23 19  2  0
 24  8  1  0
  1 25  1  0
  1 26  1  0
  1 27  1  0
  2 28  1  0
  2 29  1  0
  5 30  1  0
  6 31  1  0
  7 32  1  0
 11 33  1  0
 11 34  1  0
 16 35  1  0
 16 36  1  0
 17 37  1  0
 17 38  1  0
 18 39  1  0
 18 40  1  0
 20 41  1  0
 22 42  1  0
 23 43  1  0
 24 44  1  0
M  END
>  <Energy>  (178) 
690.37847905007072

>  <compound_id>  (178) 
27408

>  <target_id>  (178) 
1

>  <reference_id>  (178) 
96

>  <inspiration_ids>  (178) 
[89, 96]

>  <energy_score>  (178) 
614.8401882113025

>  <distance_score>  (178) 
4.11975971249879

>  <path>  (178) 
/opt/xchem-fragalysis-2/maxwin/BulkDock/SCRATCH/511020/C27408-P96/C27408-P96.minimised.mol

>  <scratch_subdir>  (178) 
/opt/xchem-fragalysis-2/maxwin/BulkDock/SCRATCH/511020/C27408-P96

>  <fragmenstein_runtime>  (178) 
33.454002380371094

>  <fragmenstein_outcome>  (178) 
too moved

>  <fragmenstein_mode>  (178) 
expansion

>  <fragmenstein_error>  (178) 


$$$$
C27408-P96
     RDKit          3D

 44 46  0  0  0  0  0  0  0  0999 V2000
   -8.3342  -23.8627   33.5208 C   0  0  0  0  0  0  0  0  0  0  0  0
   -8.7889  -25.1352   32.8331 C   0  0  0  0  0  0  0  0  0  0  0  0
  -10.1915  -25.1704   32.5724 O   0  0  0  0  0  0  0  0  0  0  0  0
  -10.6824  -24.1532   31.8149 C   0  0  0  0  0  0  0  0  0  0  0  0
  -11.3776  -23.1070   32.4213 C   0  0  0  0  0  0  0  0  0  0  0  0
  -11.7477  -21.9953   31.6657 C   0  0  0  0  0  0  0  0  0  0  0  0
  -11.3355  -21.8975   30.3358 C   0  0  0  0  0  0  0  0  0  0  0  0
  -10.6213  -22.9519   29.7514 C   0  0  0  0  0  0  0  0  0  0  0  0
  -10.4400  -24.1458   30.4582 C   0  0  0  0  0  0  0  0  0  0  0  0
   -9.8530  -25.2663   29.9276 O   0  0  0  0  0  0  0  0  0  0  0  0
   -9.2140  -25.0263   28.6847 C   0  0  0  0  0  0  0  0  0  0  0  0
   -8.7268  -23.6196   28.5620 C   0  0  0  0  0  0  0  0  0  0  0  0
   -7.3870  -23.4474   29.3509 C   0  0  0  0  0  0  0  0  0  0  0  0
   -7.4978  -23.6759   30.5614 O   0  0  0  0  0  0  0  0  0  0  0  0
   -5.7794  -22.8232   28.7056 O   0  0  0  0  0  0  0  0  0  0  0  0
   -4.6847  -21.7376   27.6231 C   0  0  0  0  0  0  0  0  0  0  0  0
   -2.7904  -22.1372   27.8730 C   0  0  0  0  0  0  0  0  0  0  0  0
   -0.7900  -21.4919   28.4712 C   0  0  0  0  0  0  0  0  0  0  0  0
    0.8336  -22.3809   29.4530 C   0  0  0  0  0  0  0  0  0  0  0  0
    2.1356  -23.2558   29.2226 C   0  0  0  0  0  0  0  0  0  0  0  0
    2.5748  -24.1999   30.0613 N   0  0  0  0  0  0  0  0  0  0  0  0
    2.1782  -23.6311   31.1392 N   0  0  0  0  0  0  0  0  0  0  0  0
    1.5998  -22.4229   30.8200 C   0  0  0  0  0  0  0  0  0  0  0  0
   -9.6863  -22.6769   28.6313 C   0  0  0  0  0  0  0  0  0  0  0  0
   -7.2689  -23.9230   33.7328 H   0  0  0  0  0  0  0  0  0  0  0  0
   -8.4997  -22.9740   32.9055 H   0  0  0  0  0  0  0  0  0  0  0  0
   -8.8775  -23.7123   34.4590 H   0  0  0  0  0  0  0  0  0  0  0  0
   -8.2316  -25.3611   31.9286 H   0  0  0  0  0  0  0  0  0  0  0  0
   -8.5869  -25.9719   33.5119 H   0  0  0  0  0  0  0  0  0  0  0  0
  -11.5829  -23.1280   33.4876 H   0  0  0  0  0  0  0  0  0  0  0  0
  -12.2673  -21.1677   32.1403 H   0  0  0  0  0  0  0  0  0  0  0  0
  -11.4727  -20.9611   29.7980 H   0  0  0  0  0  0  0  0  0  0  0  0
   -8.3594  -25.6910   28.5935 H   0  0  0  0  0  0  0  0  0  0  0  0
   -9.9037  -25.2836   27.8707 H   0  0  0  0  0  0  0  0  0  0  0  0
   -5.0381  -22.0303   26.6366 H   0  0  0  0  0  0  0  0  0  0  0  0
   -5.0716  -20.7250   27.6501 H   0  0  0  0  0  0  0  0  0  0  0  0
   -2.6783  -23.1945   27.5224 H   0  0  0  0  0  0  0  0  0  0  0  0
   -3.2489  -22.1812   28.9197 H   0  0  0  0  0  0  0  0  0  0  0  0
   -0.3576  -20.9952   27.6502 H   0  0  0  0  0  0  0  0  0  0  0  0
   -0.7546  -20.4419   28.8456 H   0  0  0  0  0  0  0  0  0  0  0  0
    2.8417  -23.1525   28.4004 H   0  0  0  0  0  0  0  0  0  0  0  0
    2.2501  -24.0980   32.0344 H   0  0  0  0  0  0  0  0  0  0  0  0
    1.4564  -21.8494   31.7273 H   0  0  0  0  0  0  0  0  0  0  0  0
   -9.4738  -21.6219   28.5186 H   0  0  0  0  0  0  0  0  0  0  0  0
  1  2  1  0
  2  3  1  0
  3  4  1  0
  4  5  2  0
  5  6  1  0
  6  7  2  0
  7  8  1  0
  8  9  2  0
  9 10  1  0
 10 11  1  0
 11 12  1  0
 12 13  1  0
 13 14  2  0
 13 15  1  0
 15 16  1  0
 16 17  1  0
 17 18  1  0
 18 19  1  0
 19 20  1  0
 20 21  2  0
 21 22  1  0
 22 23  1  0
 12 24  2  0
  9  4  1  0
 23 19  2  0
 24  8  1  0
  1 25  1  0
  1 26  1  0
  1 27  1  0
  2 28  1  0
  2 29  1  0
  5 30  1  0
  6 31  1  0
  7 32  1  0
 11 33  1  0
 11 34  1  0
 16 35  1  0
 16 36  1  0
 17 37  1  0
 17 38  1  0
 18 39  1  0
 18 40  1  0
 20 41  1  0
 22 42  1  0
 23 43  1  0
 24 44  1  0
M  END
>  <Energy>  (179) 
690.37847905007072

>  <compound_id>  (179) 
27408

>  <target_id>  (179) 
1

>  <reference_id>  (179) 
96

>  <inspiration_ids>  (179) 
[89, 96]

>  <energy_score>  (179) 
614.8401882113025

>  <distance_score>  (179) 
4.11975971249879

>  <path>  (179) 
/opt/xchem-fragalysis-2/maxwin/BulkDock/SCRATCH/511020/C27408-P96/C27408-P96.minimised.mol

>  <scratch_subdir>  (179) 
/opt/xchem-fragalysis-2/maxwin/BulkDock/SCRATCH/511020/C27408-P96

>  <fragmenstein_runtime>  (179) 
43.37642192840576

>  <fragmenstein_outcome>  (179) 
too moved

>  <fragmenstein_mode>  (179) 
expansion

>  <fragmenstein_error>  (179) 


$$$$
C27392-P96
     RDKit          3D

 35 37  0  0  0  0  0  0  0  0999 V2000
    6.0868  -23.8353   27.3515 C   0  0  0  0  0  0  0  0  0  0  0  0
    4.8332  -24.0707   27.9681 O   0  0  0  0  0  0  0  0  0  0  0  0
    4.1039  -22.9123   28.1997 C   0  0  0  0  0  0  0  0  0  0  0  0
    3.0062  -23.1501   29.6470 C   0  0  0  0  0  0  0  0  0  0  0  0
    2.4391  -21.6448   30.5581 C   0  0  0  0  0  0  0  0  0  0  0  0
    3.2084  -19.6698   29.7410 C   0  0  0  0  0  0  0  0  0  0  0  0
    4.5543  -19.6622   28.6305 C   0  0  0  0  0  0  0  0  0  0  0  0
    4.7836  -21.2311   27.7095 C   0  0  0  0  0  0  0  0  0  0  0  0
    4.7721  -18.8284   30.1983 O   0  0  0  0  0  0  0  0  0  0  0  0
    3.4054  -17.7769   30.9373 C   0  0  0  0  0  0  0  0  0  0  0  0
    1.8016  -17.5066   30.0156 C   0  0  0  0  0  0  0  0  0  0  0  0
   -0.1001  -17.3557   29.8277 C   0  0  0  0  0  0  0  0  0  0  0  0
   -0.4440  -16.2203   30.0718 O   0  0  0  0  0  0  0  0  0  0  0  0
   -1.3880  -18.8270   29.4703 O   0  0  0  0  0  0  0  0  0  0  0  0
   -3.1018  -19.9962   29.6604 C   0  0  0  0  0  0  0  0  0  0  0  0
   -4.2601  -20.6174   27.9538 C   0  0  0  0  0  0  0  0  0  0  0  0
   -4.1470  -21.8255   27.4147 C   0  0  0  0  0  0  0  0  0  0  0  0
   -5.1514  -22.0153   26.5443 N   0  0  0  0  0  0  0  0  0  0  0  0
   -6.1244  -21.4742   27.1646 N   0  0  0  0  0  0  0  0  0  0  0  0
   -5.5469  -20.3426   27.5237 C   0  0  0  0  0  0  0  0  0  0  0  0
    2.0984  -18.4543   29.2398 C   0  0  0  0  0  0  0  0  0  0  0  0
    6.5823  -24.8023   27.2210 H   0  0  0  0  0  0  0  0  0  0  0  0
    5.9791  -23.3803   26.3618 H   0  0  0  0  0  0  0  0  0  0  0  0
    6.7212  -23.2220   27.9962 H   0  0  0  0  0  0  0  0  0  0  0  0
    2.7885  -24.1369   30.0392 H   0  0  0  0  0  0  0  0  0  0  0  0
    1.7307  -21.8873   31.3786 H   0  0  0  0  0  0  0  0  0  0  0  0
    5.4810  -21.1924   26.8711 H   0  0  0  0  0  0  0  0  0  0  0  0
    4.0267  -16.9299   30.9322 H   0  0  0  0  0  0  0  0  0  0  0  0
    3.3770  -17.9773   32.0094 H   0  0  0  0  0  0  0  0  0  0  0  0
   -3.2516  -20.2602   30.7098 H   0  0  0  0  0  0  0  0  0  0  0  0
   -3.0031  -21.1822   29.7429 H   0  0  0  0  0  0  0  0  0  0  0  0
   -3.3032  -22.4893   27.5628 H   0  0  0  0  0  0  0  0  0  0  0  0
   -7.0763  -21.6575   26.8880 H   0  0  0  0  0  0  0  0  0  0  0  0
   -6.2750  -19.5646   27.5004 H   0  0  0  0  0  0  0  0  0  0  0  0
    1.0850  -18.7265   28.9689 H   0  0  0  0  0  0  0  0  0  0  0  0
  1  2  1  0
  2  3  1  0
  3  4  2  0
  4  5  1  0
  5  6  2  0
  6  7  1  0
  7  8  2  0
  7  9  1  0
  9 10  1  0
 10 11  1  0
 11 12  1  0
 12 13  2  0
 12 14  1  0
 14 15  1  0
 15 16  1  0
 16 17  1  0
 17 18  2  0
 18 19  1  0
 19 20  1  0
 11 21  2  0
  8  3  1  0
 20 16  2  0
 21  6  1  0
  1 22  1  0
  1 23  1  0
  1 24  1  0
  4 25  1  0
  5 26  1  0
  8 27  1  0
 10 28  1  0
 10 29  1  0
 15 30  1  0
 15 31  1  0
 17 32  1  0
 19 33  1  0
 20 34  1  0
 21 35  1  0
M  END
>  <Energy>  (180) 
1558.1561441664087

>  <compound_id>  (180) 
27392

>  <target_id>  (180) 
1

>  <reference_id>  (180) 
96

>  <inspiration_ids>  (180) 
[89, 96]

>  <energy_score>  (180) 
1511.0960925123975

>  <distance_score>  (180) 
4.5300582389459025

>  <path>  (180) 
/opt/xchem-fragalysis-2/maxwin/BulkDock/SCRATCH/511020/C27392-P96/C27392-P96.minimised.mol

>  <scratch_subdir>  (180) 
/opt/xchem-fragalysis-2/maxwin/BulkDock/SCRATCH/511020/C27392-P96

>  <fragmenstein_runtime>  (180) 
13.46190595626831

>  <fragmenstein_outcome>  (180) 
too moved

>  <fragmenstein_mode>  (180) 
expansion

>  <fragmenstein_error>  (180) 


$$$$
C27391-P96
     RDKit          3D

 39 41  0  0  0  0  0  0  0  0999 V2000
    5.9788  -22.9272   23.9037 C   0  0  0  0  0  0  0  0  0  0  0  0
    6.4266  -22.0161   24.8946 O   0  0  0  0  0  0  0  0  0  0  0  0
    5.4780  -21.4354   25.6744 C   0  0  0  0  0  0  0  0  0  0  0  0
    4.1600  -21.5202   25.5542 C   0  0  0  0  0  0  0  0  0  0  0  0
    3.3611  -20.8032   26.4448 C   0  0  0  0  0  0  0  0  0  0  0  0
    3.7992  -20.0686   27.6257 C   0  0  0  0  0  0  0  0  0  0  0  0
    5.0977  -20.0715   27.7652 C   0  0  0  0  0  0  0  0  0  0  0  0
    5.8804  -20.7154   26.7749 C   0  0  0  0  0  0  0  0  0  0  0  0
    5.1921  -19.5160   29.0252 O   0  0  0  0  0  0  0  0  0  0  0  0
    3.5858  -19.3723   29.9599 C   0  0  0  0  0  0  0  0  0  0  0  0
    2.4624  -21.3168   30.5408 C   0  0  0  0  0  0  0  0  0  0  0  0
    1.2146  -22.2078   29.2694 C   0  0  0  0  0  0  0  0  0  0  0  0
    1.7601  -23.1649   28.8142 O   0  0  0  0  0  0  0  0  0  0  0  0
   -0.4764  -21.3969   28.8096 N   0  0  0  0  0  0  0  0  0  0  0  0
   -0.3377  -20.3301   27.7687 C   0  0  0  0  0  0  0  0  0  0  0  0
   -1.8342  -22.0441   27.5229 C   0  0  0  0  0  0  0  0  0  0  0  0
   -3.8310  -21.9570   27.2879 C   0  0  0  0  0  0  0  0  0  0  0  0
   -5.0205  -22.4288   25.9404 C   0  0  0  0  0  0  0  0  0  0  0  0
   -6.0321  -21.5992   25.7157 N   0  0  0  0  0  0  0  0  0  0  0  0
   -5.7864  -20.6848   26.6299 N   0  0  0  0  0  0  0  0  0  0  0  0
   -4.9491  -21.2034   27.5843 C   0  0  0  0  0  0  0  0  0  0  0  0
    3.1398  -19.6178   29.5150 C   0  0  0  0  0  0  0  0  0  0  0  0
    6.8481  -23.2441   23.3196 H   0  0  0  0  0  0  0  0  0  0  0  0
    5.2757  -22.4655   23.2106 H   0  0  0  0  0  0  0  0  0  0  0  0
    5.5508  -23.8213   24.3598 H   0  0  0  0  0  0  0  0  0  0  0  0
    3.7472  -22.2428   24.8798 H   0  0  0  0  0  0  0  0  0  0  0  0
    2.3655  -21.2480   26.4611 H   0  0  0  0  0  0  0  0  0  0  0  0
    6.9293  -20.6769   26.6970 H   0  0  0  0  0  0  0  0  0  0  0  0
    4.4832  -18.9212   30.8106 H   0  0  0  0  0  0  0  0  0  0  0  0
    3.1869  -18.1824   30.5695 H   0  0  0  0  0  0  0  0  0  0  0  0
   -0.8437  -19.3873   27.4977 H   0  0  0  0  0  0  0  0  0  0  0  0
    0.6693  -20.3030   27.2705 H   0  0  0  0  0  0  0  0  0  0  0  0
   -0.3527  -19.5219   28.5753 H   0  0  0  0  0  0  0  0  0  0  0  0
   -1.2390  -21.8689   26.6637 H   0  0  0  0  0  0  0  0  0  0  0  0
   -1.8475  -23.1983   27.3852 H   0  0  0  0  0  0  0  0  0  0  0  0
   -4.7491  -23.0992   25.1128 H   0  0  0  0  0  0  0  0  0  0  0  0
   -6.5270  -20.0327   26.8407 H   0  0  0  0  0  0  0  0  0  0  0  0
   -5.6889  -21.6638   28.1875 H   0  0  0  0  0  0  0  0  0  0  0  0
    2.2816  -18.7807   28.9709 H   0  0  0  0  0  0  0  0  0  0  0  0
  1  2  1  0
  2  3  1  0
  3  4  2  0
  4  5  1  0
  5  6  2  0
  6  7  1  0
  7  8  2  0
  7  9  1  0
  9 10  1  0
 10 11  1  0
 11 12  1  0
 12 13  2  0
 12 14  1  0
 14 15  1  0
 14 16  1  0
 16 17  1  0
 17 18  1  0
 18 19  2  0
 19 20  1  0
 20 21  1  0
 11 22  2  0
  8  3  1  0
 21 17  2  0
 22  6  1  0
  1 23  1  0
  1 24  1  0
  1 25  1  0
  4 26  1  0
  5 27  1  0
  8 28  1  0
 10 29  1  0
 10 30  1  0
 15 31  1  0
 15 32  1  0
 15 33  1  0
 16 34  1  0
 16 35  1  0
 18 36  1  0
 20 37  1  0
 21 38  1  0
 22 39  1  0
M  END
>  <Energy>  (181) 
1708.2115704411983

>  <compound_id>  (181) 
27391

>  <target_id>  (181) 
1

>  <reference_id>  (181) 
96

>  <inspiration_ids>  (181) 
[89, 96]

>  <energy_score>  (181) 
1659.293694801268

>  <distance_score>  (181) 
4.566260231858642

>  <path>  (181) 
/opt/xchem-fragalysis-2/maxwin/BulkDock/SCRATCH/511020/C27391-P96/C27391-P96.minimised.mol

>  <scratch_subdir>  (181) 
/opt/xchem-fragalysis-2/maxwin/BulkDock/SCRATCH/511020/C27391-P96

>  <fragmenstein_runtime>  (181) 
18.701812028884888

>  <fragmenstein_outcome>  (181) 
too moved

>  <fragmenstein_mode>  (181) 
expansion

>  <fragmenstein_error>  (181) 


$$$$
C27410-P96
     RDKit          3D

 38 40  0  0  0  0  0  0  0  0999 V2000
    5.9815  -21.4914   24.6269 C   0  0  0  0  0  0  0  0  0  0  0  0
    5.8548  -20.0874   24.9073 O   0  0  0  0  0  0  0  0  0  0  0  0
    4.9489  -19.7399   25.8667 C   0  0  0  0  0  0  0  0  0  0  0  0
    4.3453  -20.6505   26.5936 C   0  0  0  0  0  0  0  0  0  0  0  0
    4.8494  -20.4711   27.8955 C   0  0  0  0  0  0  0  0  0  0  0  0
    4.9012  -19.4893   29.0609 C   0  0  0  0  0  0  0  0  0  0  0  0
    5.5520  -18.6683   28.3231 C   0  0  0  0  0  0  0  0  0  0  0  0
    5.1323  -18.5793   26.6151 C   0  0  0  0  0  0  0  0  0  0  0  0
    5.5830  -17.5097   29.7003 O   0  0  0  0  0  0  0  0  0  0  0  0
    5.3267  -18.5620   31.2294 C   0  0  0  0  0  0  0  0  0  0  0  0
    4.1318  -19.0055   32.1388 C   0  0  0  0  0  0  0  0  0  0  0  0
    3.2829  -20.9260   32.8498 C   0  0  0  0  0  0  0  0  0  0  0  0
    4.2197  -21.7137   33.1876 O   0  0  0  0  0  0  0  0  0  0  0  0
    1.2821  -21.3169   32.7781 O   0  0  0  0  0  0  0  0  0  0  0  0
   -0.7663  -21.9907   32.8633 C   0  0  0  0  0  0  0  0  0  0  0  0
   -2.5747  -21.5756   31.7410 C   0  0  0  0  0  0  0  0  0  0  0  0
   -3.2497  -21.6600   29.7971 C   0  0  0  0  0  0  0  0  0  0  0  0
   -4.6389  -22.3919   29.3441 C   0  0  0  0  0  0  0  0  0  0  0  0
   -5.4109  -21.9385   28.2090 N   0  0  0  0  0  0  0  0  0  0  0  0
   -4.4096  -21.5425   27.5339 N   0  0  0  0  0  0  0  0  0  0  0  0
   -3.3433  -22.1281   28.2977 C   0  0  0  0  0  0  0  0  0  0  0  0
    3.9713  -18.6408   30.5602 C   0  0  0  0  0  0  0  0  0  0  0  0
    6.3668  -22.0385   25.4909 H   0  0  0  0  0  0  0  0  0  0  0  0
    5.0371  -21.9352   24.2927 H   0  0  0  0  0  0  0  0  0  0  0  0
    6.6896  -21.6222   23.8094 H   0  0  0  0  0  0  0  0  0  0  0  0
    4.2437  -21.6723   26.2364 H   0  0  0  0  0  0  0  0  0  0  0  0
    5.7960  -21.0673   27.8216 H   0  0  0  0  0  0  0  0  0  0  0  0
    5.3493  -17.6542   26.0710 H   0  0  0  0  0  0  0  0  0  0  0  0
    5.5651  -18.0469   32.1299 H   0  0  0  0  0  0  0  0  0  0  0  0
    5.7679  -19.4799   30.9693 H   0  0  0  0  0  0  0  0  0  0  0  0
   -1.2033  -21.3774   33.5807 H   0  0  0  0  0  0  0  0  0  0  0  0
   -0.9360  -22.9983   33.3209 H   0  0  0  0  0  0  0  0  0  0  0  0
   -3.1120  -20.6547   31.8252 H   0  0  0  0  0  0  0  0  0  0  0  0
   -3.4190  -21.9928   32.2757 H   0  0  0  0  0  0  0  0  0  0  0  0
   -5.1849  -22.6633   30.1894 H   0  0  0  0  0  0  0  0  0  0  0  0
   -4.5614  -20.6830   27.0228 H   0  0  0  0  0  0  0  0  0  0  0  0
   -2.8369  -22.8854   27.6864 H   0  0  0  0  0  0  0  0  0  0  0  0
    2.9584  -18.3361   30.2231 H   0  0  0  0  0  0  0  0  0  0  0  0
  1  2  1  0
  2  3  1  0
  3  4  2  0
  4  5  1  0
  5  6  2  0
  6  7  1  0
  7  8  2  0
  7  9  1  0
  9 10  1  0
 10 11  1  0
 11 12  1  0
 12 13  2  0
 12 14  1  0
 14 15  1  0
 15 16  1  0
 16 17  1  0
 17 18  1  0
 18 19  2  0
 19 20  1  0
 20 21  1  0
 11 22  2  0
  8  3  1  0
 21 17  2  0
 22  6  1  0
  1 23  1  0
  1 24  1  0
  1 25  1  0
  4 26  1  0
  5 27  1  0
  8 28  1  0
 10 29  1  0
 10 30  1  0
 15 31  1  0
 15 32  1  0
 16 33  1  0
 16 34  1  0
 18 35  1  0
 20 36  1  0
 21 37  1  0
 22 38  1  0
M  END
>  <Energy>  (182) 
1641.4645396104797

>  <compound_id>  (182) 
27410

>  <target_id>  (182) 
1

>  <reference_id>  (182) 
96

>  <inspiration_ids>  (182) 
[89, 96]

>  <energy_score>  (182) 
1581.0811782957658

>  <distance_score>  (182) 
4.4863148940193

>  <path>  (182) 
/opt/xchem-fragalysis-2/maxwin/BulkDock/SCRATCH/511020/C27410-P96/C27410-P96.minimised.mol

>  <scratch_subdir>  (182) 
/opt/xchem-fragalysis-2/maxwin/BulkDock/SCRATCH/511020/C27410-P96

>  <fragmenstein_runtime>  (182) 
12.95163893699646

>  <fragmenstein_outcome>  (182) 
too moved

>  <fragmenstein_mode>  (182) 
expansion

>  <fragmenstein_error>  (182) 


$$$$
C46648-P96
     RDKit          3D

 42 45  0  0  0  0  0  0  0  0999 V2000
    5.3425  -24.9010   22.8609 C   0  0  0  0  0  0  0  0  0  0  0  0
    5.8902  -23.6113   23.0138 O   0  0  0  0  0  0  0  0  0  0  0  0
    5.4247  -22.8485   24.0379 C   0  0  0  0  0  0  0  0  0  0  0  0
    6.2509  -21.8274   24.3718 C   0  0  0  0  0  0  0  0  0  0  0  0
    5.8121  -20.8539   25.2290 C   0  0  0  0  0  0  0  0  0  0  0  0
    4.5357  -20.9094   25.7610 C   0  0  0  0  0  0  0  0  0  0  0  0
    3.6547  -21.9057   25.5703 C   0  0  0  0  0  0  0  0  0  0  0  0
    4.1464  -22.8256   24.5918 C   0  0  0  0  0  0  0  0  0  0  0  0
    2.0393  -21.6575   26.1417 C   0  0  0  0  0  0  0  0  0  0  0  0
    1.3673  -20.9346   27.0566 C   0  0  0  0  0  0  0  0  0  0  0  0
   -0.4798  -20.7497   27.7817 C   0  0  0  0  0  0  0  0  0  0  0  0
   -0.6160  -19.6412   28.3761 O   0  0  0  0  0  0  0  0  0  0  0  0
   -1.8789  -21.8752   27.5399 O   0  0  0  0  0  0  0  0  0  0  0  0
   -3.7770  -21.8573   28.1614 C   0  0  0  0  0  0  0  0  0  0  0  0
   -5.7743  -22.2505   28.2909 C   0  0  0  0  0  0  0  0  0  0  0  0
   -6.7255  -21.4034   27.6789 N   0  0  0  0  0  0  0  0  0  0  0  0
   -8.0784  -21.7659   28.1902 N   0  0  0  0  0  0  0  0  0  0  0  0
   -8.4134  -22.9709   28.7812 C   0  0  0  0  0  0  0  0  0  0  0  0
   -7.1412  -23.4520   29.2922 C   0  0  0  0  0  0  0  0  0  0  0  0
   -7.8092  -23.6902   30.8520 C   0  0  0  0  0  0  0  0  0  0  0  0
   -9.2094  -24.2730   30.5294 C   0  0  0  0  0  0  0  0  0  0  0  0
   -9.7020  -23.3980   29.3714 C   0  0  0  0  0  0  0  0  0  0  0  0
    2.9141  -19.9915   27.1206 C   0  0  0  0  0  0  0  0  0  0  0  0
    3.9872  -19.7882   26.1932 O   0  0  0  0  0  0  0  0  0  0  0  0
    4.3135  -24.8496   22.4975 H   0  0  0  0  0  0  0  0  0  0  0  0
    5.9254  -25.4213   22.0940 H   0  0  0  0  0  0  0  0  0  0  0  0
    5.4374  -25.4806   23.7821 H   0  0  0  0  0  0  0  0  0  0  0  0
    7.0990  -21.6318   23.7442 H   0  0  0  0  0  0  0  0  0  0  0  0
    6.3640  -19.9355   25.2230 H   0  0  0  0  0  0  0  0  0  0  0  0
    3.4369  -23.4229   24.0376 H   0  0  0  0  0  0  0  0  0  0  0  0
    1.2963  -21.9855   25.3546 H   0  0  0  0  0  0  0  0  0  0  0  0
   -3.5622  -22.5426   28.9481 H   0  0  0  0  0  0  0  0  0  0  0  0
   -3.9774  -22.0984   27.1403 H   0  0  0  0  0  0  0  0  0  0  0  0
   -8.7440  -21.0165   28.2673 H   0  0  0  0  0  0  0  0  0  0  0  0
   -8.0245  -22.7480   31.3516 H   0  0  0  0  0  0  0  0  0  0  0  0
   -7.3353  -24.2330   31.6572 H   0  0  0  0  0  0  0  0  0  0  0  0
   -9.1139  -25.3142   30.2053 H   0  0  0  0  0  0  0  0  0  0  0  0
   -9.8862  -24.2383   31.3884 H   0  0  0  0  0  0  0  0  0  0  0  0
  -10.3086  -23.9728   28.6665 H   0  0  0  0  0  0  0  0  0  0  0  0
  -10.2893  -22.5501   29.7359 H   0  0  0  0  0  0  0  0  0  0  0  0
    3.8048  -20.2797   27.7016 H   0  0  0  0  0  0  0  0  0  0  0  0
    2.6397  -19.3637   27.9208 H   0  0  0  0  0  0  0  0  0  0  0  0
  1  2  1  0
  2  3  1  0
  3  4  2  0
  4  5  1  0
  5  6  2  0
  6  7  1  0
  7  8  2  0
  7  9  1  0
  9 10  2  0
 10 11  1  0
 11 12  2  0
 11 13  1  0
 13 14  1  0
 14 15  1  0
 15 16  2  0
 16 17  1  0
 17 18  1  0
 18 19  2  0
 19 20  1  0
 20 21  1  0
 21 22  1  0
 10 23  1  0
 23 24  1  0
  8  3  1  0
 19 15  1  0
 24  6  1  0
 22 18  1  0
  1 25  1  0
  1 26  1  0
  1 27  1  0
  4 28  1  0
  5 29  1  0
  8 30  1  0
  9 31  1  0
 14 32  1  0
 14 33  1  0
 17 34  1  0
 20 35  1  0
 20 36  1  0
 21 37  1  0
 21 38  1  0
 22 39  1  0
 22 40  1  0
 23 41  1  0
 23 42  1  0
M  END
>  <Energy>  (183) 
813.57269622386991

>  <compound_id>  (183) 
46648

>  <target_id>  (183) 
1

>  <reference_id>  (183) 
96

>  <inspiration_ids>  (183) 
[89, 96]

>  <energy_score>  (183) 
722.6844850768596

>  <distance_score>  (183) 
4.4017710856122445

>  <path>  (183) 
/opt/xchem-fragalysis-2/maxwin/BulkDock/SCRATCH/511020/C46648-P96/C46648-P96.minimised.mol

>  <scratch_subdir>  (183) 
/opt/xchem-fragalysis-2/maxwin/BulkDock/SCRATCH/511020/C46648-P96

>  <fragmenstein_runtime>  (183) 
19.94458246231079

>  <fragmenstein_outcome>  (183) 
too moved

>  <fragmenstein_mode>  (183) 
expansion

>  <fragmenstein_error>  (183) 


$$$$
C27411-P96
     RDKit          3D

 38 40  0  0  0  0  0  0  0  0999 V2000
    4.9970  -19.9542   25.6185 C   0  0  0  0  0  0  0  0  0  0  0  0
    4.9475  -19.8112   27.0432 O   0  0  0  0  0  0  0  0  0  0  0  0
    5.6431  -20.7319   27.7293 C   0  0  0  0  0  0  0  0  0  0  0  0
    5.8372  -22.0397   27.1028 C   0  0  0  0  0  0  0  0  0  0  0  0
    6.4336  -23.2082   27.7071 C   0  0  0  0  0  0  0  0  0  0  0  0
    6.9895  -23.2902   29.0237 C   0  0  0  0  0  0  0  0  0  0  0  0
    7.1021  -22.1237   29.8937 C   0  0  0  0  0  0  0  0  0  0  0  0
    6.2086  -20.5734   29.2109 C   0  0  0  0  0  0  0  0  0  0  0  0
    5.3535  -19.4965   30.4319 O   0  0  0  0  0  0  0  0  0  0  0  0
    4.6682  -19.5359   32.2793 C   0  0  0  0  0  0  0  0  0  0  0  0
    4.1761  -21.7480   32.3617 C   0  0  0  0  0  0  0  0  0  0  0  0
    2.4826  -22.5333   31.2476 C   0  0  0  0  0  0  0  0  0  0  0  0
    2.5114  -23.7882   31.3002 O   0  0  0  0  0  0  0  0  0  0  0  0
    0.9490  -21.9841   30.1464 O   0  0  0  0  0  0  0  0  0  0  0  0
   -0.7528  -21.5395   28.9462 C   0  0  0  0  0  0  0  0  0  0  0  0
   -2.9820  -21.8646   29.3310 C   0  0  0  0  0  0  0  0  0  0  0  0
   -4.9911  -22.4203   29.0078 C   0  0  0  0  0  0  0  0  0  0  0  0
   -6.7542  -23.4632   29.2479 C   0  0  0  0  0  0  0  0  0  0  0  0
   -7.9595  -22.5153   28.7516 N   0  0  0  0  0  0  0  0  0  0  0  0
   -7.0737  -21.4864   27.8884 N   0  0  0  0  0  0  0  0  0  0  0  0
   -5.6385  -21.6259   27.8182 C   0  0  0  0  0  0  0  0  0  0  0  0
    5.7701  -22.0790   31.5499 C   0  0  0  0  0  0  0  0  0  0  0  0
    4.1567  -20.5699   25.2918 H   0  0  0  0  0  0  0  0  0  0  0  0
    5.9445  -20.3616   25.2431 H   0  0  0  0  0  0  0  0  0  0  0  0
    4.9137  -18.9592   25.1749 H   0  0  0  0  0  0  0  0  0  0  0  0
    5.3982  -22.2460   26.1259 H   0  0  0  0  0  0  0  0  0  0  0  0
    6.3860  -24.1330   27.1258 H   0  0  0  0  0  0  0  0  0  0  0  0
    7.2693  -24.2862   29.3476 H   0  0  0  0  0  0  0  0  0  0  0  0
    5.5213  -19.0361   32.4939 H   0  0  0  0  0  0  0  0  0  0  0  0
    4.0169  -18.6357   32.1032 H   0  0  0  0  0  0  0  0  0  0  0  0
   -0.6580  -20.3824   29.0102 H   0  0  0  0  0  0  0  0  0  0  0  0
   -0.5390  -21.2348   27.9331 H   0  0  0  0  0  0  0  0  0  0  0  0
   -3.2376  -21.0788   30.0524 H   0  0  0  0  0  0  0  0  0  0  0  0
   -3.1880  -22.0124   28.2218 H   0  0  0  0  0  0  0  0  0  0  0  0
   -7.2282  -24.1225   29.9580 H   0  0  0  0  0  0  0  0  0  0  0  0
   -7.5128  -20.6345   27.6129 H   0  0  0  0  0  0  0  0  0  0  0  0
   -5.1175  -20.9229   27.1976 H   0  0  0  0  0  0  0  0  0  0  0  0
    6.6202  -21.8245   32.1171 H   0  0  0  0  0  0  0  0  0  0  0  0
  1  2  1  0
  2  3  1  0
  3  4  2  0
  4  5  1  0
  5  6  2  0
  6  7  1  0
  7  8  2  0
  8  9  1  0
  9 10  1  0
 10 11  1  0
 11 12  1  0
 12 13  2  0
 12 14  1  0
 14 15  1  0
 15 16  1  0
 16 17  1  0
 17 18  1  0
 18 19  2  0
 19 20  1  0
 20 21  1  0
 11 22  2  0
  8  3  1  0
 21 17  2  0
 22  7  1  0
  1 23  1  0
  1 24  1  0
  1 25  1  0
  4 26  1  0
  5 27  1  0
  6 28  1  0
 10 29  1  0
 10 30  1  0
 15 31  1  0
 15 32  1  0
 16 33  1  0
 16 34  1  0
 18 35  1  0
 20 36  1  0
 21 37  1  0
 22 38  1  0
M  END
>  <Energy>  (184) 
1901.920383560958

>  <compound_id>  (184) 
27411

>  <target_id>  (184) 
1

>  <reference_id>  (184) 
96

>  <inspiration_ids>  (184) 
[89, 96]

>  <energy_score>  (184) 
1832.9778070544141

>  <distance_score>  (184) 
3.9090794321852145

>  <path>  (184) 
/opt/xchem-fragalysis-2/maxwin/BulkDock/SCRATCH/511020/C27411-P96/C27411-P96.minimised.mol

>  <scratch_subdir>  (184) 
/opt/xchem-fragalysis-2/maxwin/BulkDock/SCRATCH/511020/C27411-P96

>  <fragmenstein_runtime>  (184) 
22.21155333518982

>  <fragmenstein_outcome>  (184) 
too moved

>  <fragmenstein_mode>  (184) 
expansion

>  <fragmenstein_error>  (184) 


$$$$
C46650-P96
     RDKit          3D

 39 42  0  0  0  0  0  0  0  0999 V2000
   -1.7329  -21.2531   33.2296 O   0  0  0  0  0  0  0  0  0  0  0  0
   -1.0424  -22.1734   33.1762 C   0  0  0  0  0  0  0  0  0  0  0  0
   -1.9759  -23.7595   33.5989 N   0  0  0  0  0  0  0  0  0  0  0  0
   -3.8370  -24.1381   33.9648 C   0  0  0  0  0  0  0  0  0  0  0  0
   -4.2404  -25.8784   33.9276 N   0  0  0  0  0  0  0  0  0  0  0  0
   -5.4379  -26.5179   33.3790 N   0  0  0  0  0  0  0  0  0  0  0  0
   -6.4240  -25.5988   33.4340 C   0  0  0  0  0  0  0  0  0  0  0  0
   -5.7716  -24.0708   33.5977 C   0  0  0  0  0  0  0  0  0  0  0  0
   -6.9669  -23.2353   32.7894 C   0  0  0  0  0  0  0  0  0  0  0  0
   -8.4006  -23.5165   33.2330 C   0  0  0  0  0  0  0  0  0  0  0  0
   -8.7656  -24.8854   32.7148 C   0  0  0  0  0  0  0  0  0  0  0  0
   -7.9065  -25.8764   33.4535 C   0  0  0  0  0  0  0  0  0  0  0  0
    0.9675  -21.5638   32.5450 C   0  0  0  0  0  0  0  0  0  0  0  0
    2.0323  -21.5959   31.1642 C   0  0  0  0  0  0  0  0  0  0  0  0
    3.0682  -19.9253   29.9549 C   0  0  0  0  0  0  0  0  0  0  0  0
    2.6016  -22.1193   30.2351 C   0  0  0  0  0  0  0  0  0  0  0  0
    3.6238  -22.8492   28.7074 C   0  0  0  0  0  0  0  0  0  0  0  0
    4.5446  -21.3267   27.8381 C   0  0  0  0  0  0  0  0  0  0  0  0
    4.5566  -19.6510   28.8650 C   0  0  0  0  0  0  0  0  0  0  0  0
    3.7217  -18.7013   30.3220 C   0  0  0  0  0  0  0  0  0  0  0  0
    2.4628  -18.3212   31.7896 O   0  0  0  0  0  0  0  0  0  0  0  0
    1.3697  -19.6221   33.0372 C   0  0  0  0  0  0  0  0  0  0  0  0
   -1.3184  -24.4976   33.6168 H   0  0  0  0  0  0  0  0  0  0  0  0
   -4.4028  -25.9818   34.8995 H   0  0  0  0  0  0  0  0  0  0  0  0
   -6.9501  -22.1696   32.7033 H   0  0  0  0  0  0  0  0  0  0  0  0
   -6.9450  -23.5583   31.7506 H   0  0  0  0  0  0  0  0  0  0  0  0
   -8.5087  -23.4391   34.3205 H   0  0  0  0  0  0  0  0  0  0  0  0
   -9.0763  -22.7796   32.7823 H   0  0  0  0  0  0  0  0  0  0  0  0
   -9.8217  -25.0823   32.8913 H   0  0  0  0  0  0  0  0  0  0  0  0
   -8.6179  -24.9623   31.6315 H   0  0  0  0  0  0  0  0  0  0  0  0
   -8.1670  -26.8683   33.1465 H   0  0  0  0  0  0  0  0  0  0  0  0
   -8.2492  -25.8420   34.4918 H   0  0  0  0  0  0  0  0  0  0  0  0
    2.8009  -21.8825   32.0681 H   0  0  0  0  0  0  0  0  0  0  0  0
    3.1799  -23.0309   30.8414 H   0  0  0  0  0  0  0  0  0  0  0  0
    4.0649  -23.8429   28.6689 H   0  0  0  0  0  0  0  0  0  0  0  0
    5.3415  -21.5192   27.1173 H   0  0  0  0  0  0  0  0  0  0  0  0
    5.4165  -19.1385   28.4063 H   0  0  0  0  0  0  0  0  0  0  0  0
    2.0089  -19.5479   33.8899 H   0  0  0  0  0  0  0  0  0  0  0  0
    0.4809  -19.1170   33.4741 H   0  0  0  0  0  0  0  0  0  0  0  0
  1  2  2  0
  2  3  1  0
  3  4  1  0
  4  5  1  0
  5  6  1  0
  6  7  2  0
  7  8  1  0
  8  9  1  0
  9 10  1  0
 10 11  1  0
 11 12  1  0
  2 13  1  0
 13 14  2  0
 14 15  1  0
 15 16  2  0
 16 17  1  0
 17 18  2  0
 18 19  1  0
 19 20  2  0
 20 21  1  0
 21 22  1  0
  8  4  2  0
 22 13  1  0
 12  7  1  0
 20 15  1  0
  3 23  1  0
  5 24  1  0
  9 25  1  0
  9 26  1  0
 10 27  1  0
 10 28  1  0
 11 29  1  0
 11 30  1  0
 12 31  1  0
 12 32  1  0
 14 33  1  0
 16 34  1  0
 17 35  1  0
 18 36  1  0
 19 37  1  0
 22 38  1  0
 22 39  1  0
M  END
>  <Energy>  (185) 
2524.9143957910601

>  <compound_id>  (185) 
46650

>  <target_id>  (185) 
1

>  <reference_id>  (185) 
96

>  <inspiration_ids>  (185) 
[89, 96]

>  <energy_score>  (185) 
2433.1979245845487

>  <distance_score>  (185) 
3.032486980661339

>  <path>  (185) 
/opt/xchem-fragalysis-2/maxwin/BulkDock/SCRATCH/511020/C46650-P96/C46650-P96.minimised.mol

>  <scratch_subdir>  (185) 
/opt/xchem-fragalysis-2/maxwin/BulkDock/SCRATCH/511020/C46650-P96

>  <fragmenstein_runtime>  (185) 
18.284745454788208

>  <fragmenstein_outcome>  (185) 
too moved

>  <fragmenstein_mode>  (185) 
expansion

>  <fragmenstein_error>  (185) 


$$$$
C27401-P96
     RDKit          3D

 39 41  0  0  0  0  0  0  0  0999 V2000
    5.5526  -22.4682   24.3249 C   0  0  0  0  0  0  0  0  0  0  0  0
    6.0023  -21.4766   25.3850 C   0  0  0  0  0  0  0  0  0  0  0  0
    4.9485  -20.4894   25.8938 C   0  0  0  0  0  0  0  0  0  0  0  0
    5.2431  -19.9346   27.1974 O   0  0  0  0  0  0  0  0  0  0  0  0
    5.3240  -20.8173   28.2042 C   0  0  0  0  0  0  0  0  0  0  0  0
    4.4631  -22.5120   27.9284 C   0  0  0  0  0  0  0  0  0  0  0  0
    3.4253  -23.3293   29.3154 C   0  0  0  0  0  0  0  0  0  0  0  0
    3.1138  -22.9338   31.0484 C   0  0  0  0  0  0  0  0  0  0  0  0
    4.8513  -22.1621   31.2456 C   0  0  0  0  0  0  0  0  0  0  0  0
    5.5499  -20.4664   30.1311 C   0  0  0  0  0  0  0  0  0  0  0  0
    3.1737  -22.3606   32.0073 O   0  0  0  0  0  0  0  0  0  0  0  0
    1.6067  -23.6242   32.1768 C   0  0  0  0  0  0  0  0  0  0  0  0
   -0.2681  -23.1889   33.0827 C   0  0  0  0  0  0  0  0  0  0  0  0
   -2.1815  -22.7765   33.2923 C   0  0  0  0  0  0  0  0  0  0  0  0
   -2.3687  -21.6602   32.9160 O   0  0  0  0  0  0  0  0  0  0  0  0
   -3.6879  -23.9694   33.7166 N   0  0  0  0  0  0  0  0  0  0  0  0
   -5.7417  -23.7883   33.4432 C   0  0  0  0  0  0  0  0  0  0  0  0
   -6.8148  -25.0883   33.5915 C   0  0  0  0  0  0  0  0  0  0  0  0
   -8.1144  -24.7912   33.5104 N   0  0  0  0  0  0  0  0  0  0  0  0
   -8.0504  -23.4935   33.2232 N   0  0  0  0  0  0  0  0  0  0  0  0
   -6.8037  -23.1995   32.6572 C   0  0  0  0  0  0  0  0  0  0  0  0
    1.3669  -22.5437   32.2725 C   0  0  0  0  0  0  0  0  0  0  0  0
    6.1850  -23.3623   24.3651 H   0  0  0  0  0  0  0  0  0  0  0  0
    4.5201  -22.7832   24.4762 H   0  0  0  0  0  0  0  0  0  0  0  0
    5.6588  -22.0732   23.3153 H   0  0  0  0  0  0  0  0  0  0  0  0
    6.8513  -20.9030   25.0032 H   0  0  0  0  0  0  0  0  0  0  0  0
    6.3677  -22.0765   26.2180 H   0  0  0  0  0  0  0  0  0  0  0  0
    3.9371  -20.9043   25.8883 H   0  0  0  0  0  0  0  0  0  0  0  0
    4.9193  -19.6318   25.2178 H   0  0  0  0  0  0  0  0  0  0  0  0
    4.1852  -22.7856   26.9140 H   0  0  0  0  0  0  0  0  0  0  0  0
    2.3745  -23.4155   29.0562 H   0  0  0  0  0  0  0  0  0  0  0  0
    5.2010  -19.4015   30.3074 H   0  0  0  0  0  0  0  0  0  0  0  0
    1.4807  -24.1807   31.1483 H   0  0  0  0  0  0  0  0  0  0  0  0
    2.1821  -24.4522   32.6890 H   0  0  0  0  0  0  0  0  0  0  0  0
   -3.3343  -24.8360   34.0939 H   0  0  0  0  0  0  0  0  0  0  0  0
   -6.5036  -26.1072   33.8068 H   0  0  0  0  0  0  0  0  0  0  0  0
   -8.9239  -23.0206   33.0244 H   0  0  0  0  0  0  0  0  0  0  0  0
   -6.9342  -23.2708   31.5954 H   0  0  0  0  0  0  0  0  0  0  0  0
    1.3369  -21.4498   32.2943 H   0  0  0  0  0  0  0  0  0  0  0  0
  1  2  1  0
  2  3  1  0
  3  4  1  0
  4  5  1  0
  5  6  2  0
  6  7  1  0
  7  8  2  0
  8  9  1  0
  9 10  2  0
  9 11  1  0
 11 12  1  0
 12 13  1  0
 13 14  1  0
 14 15  2  0
 14 16  1  0
 16 17  1  0
 17 18  1  0
 18 19  2  0
 19 20  1  0
 20 21  1  0
 13 22  2  0
 10  5  1  0
 21 17  2  0
 22  8  1  0
  1 23  1  0
  1 24  1  0
  1 25  1  0
  2 26  1  0
  2 27  1  0
  3 28  1  0
  3 29  1  0
  6 30  1  0
  7 31  1  0
 10 32  1  0
 12 33  1  0
 12 34  1  0
 16 35  1  0
 18 36  1  0
 20 37  1  0
 21 38  1  0
 22 39  1  0
M  END
>  <Energy>  (186) 
2263.8626572188059

>  <compound_id>  (186) 
27401

>  <target_id>  (186) 
1

>  <reference_id>  (186) 
96

>  <inspiration_ids>  (186) 
[89, 96]

>  <energy_score>  (186) 
2209.865015459211

>  <distance_score>  (186) 
4.646371441237279

>  <path>  (186) 
/opt/xchem-fragalysis-2/maxwin/BulkDock/SCRATCH/511020/C27401-P96/C27401-P96.minimised.mol

>  <scratch_subdir>  (186) 
/opt/xchem-fragalysis-2/maxwin/BulkDock/SCRATCH/511020/C27401-P96

>  <fragmenstein_runtime>  (186) 
19.756591796875

>  <fragmenstein_outcome>  (186) 
too moved

>  <fragmenstein_mode>  (186) 
expansion

>  <fragmenstein_error>  (186) 


$$$$
C27398-P96
     RDKit          3D

 36 38  0  0  0  0  0  0  0  0999 V2000
    8.1130  -26.8878   24.3320 C   0  0  0  0  0  0  0  0  0  0  0  0
    6.7794  -26.4279   24.8915 C   0  0  0  0  0  0  0  0  0  0  0  0
    6.4274  -27.2623   26.0040 O   0  0  0  0  0  0  0  0  0  0  0  0
    6.2614  -26.5417   27.1512 C   0  0  0  0  0  0  0  0  0  0  0  0
    7.2645  -25.8112   27.7146 C   0  0  0  0  0  0  0  0  0  0  0  0
    6.8714  -24.9225   28.6817 C   0  0  0  0  0  0  0  0  0  0  0  0
    5.5517  -24.9285   29.1443 C   0  0  0  0  0  0  0  0  0  0  0  0
    4.5661  -25.7953   28.8231 C   0  0  0  0  0  0  0  0  0  0  0  0
    4.9741  -26.4993   27.7128 C   0  0  0  0  0  0  0  0  0  0  0  0
    3.1951  -25.5966   29.5065 C   0  0  0  0  0  0  0  0  0  0  0  0
    2.8162  -24.3205   29.8340 C   0  0  0  0  0  0  0  0  0  0  0  0
    1.4247  -23.6792   30.0891 C   0  0  0  0  0  0  0  0  0  0  0  0
    0.8686  -24.2787   30.9588 O   0  0  0  0  0  0  0  0  0  0  0  0
    0.8232  -22.3162   29.0109 N   0  0  0  0  0  0  0  0  0  0  0  0
   -0.9047  -21.4996   28.7901 C   0  0  0  0  0  0  0  0  0  0  0  0
   -1.6115  -21.9932   27.4325 C   0  0  0  0  0  0  0  0  0  0  0  0
   -2.8463  -22.7748   27.5671 N   0  0  0  0  0  0  0  0  0  0  0  0
   -3.5456  -22.0679   28.4085 N   0  0  0  0  0  0  0  0  0  0  0  0
   -2.7498  -21.6821   29.4758 C   0  0  0  0  0  0  0  0  0  0  0  0
    3.9221  -23.5426   29.8671 C   0  0  0  0  0  0  0  0  0  0  0  0
    5.2118  -23.9987   30.0279 O   0  0  0  0  0  0  0  0  0  0  0  0
    8.9063  -26.7807   25.0785 H   0  0  0  0  0  0  0  0  0  0  0  0
    8.0721  -27.9477   24.0598 H   0  0  0  0  0  0  0  0  0  0  0  0
    8.3839  -26.3064   23.4462 H   0  0  0  0  0  0  0  0  0  0  0  0
    6.0031  -26.5622   24.1302 H   0  0  0  0  0  0  0  0  0  0  0  0
    6.8133  -25.3573   25.1316 H   0  0  0  0  0  0  0  0  0  0  0  0
    8.2793  -25.8452   27.3467 H   0  0  0  0  0  0  0  0  0  0  0  0
    7.5644  -24.2069   29.1078 H   0  0  0  0  0  0  0  0  0  0  0  0
    4.2315  -26.8266   27.0258 H   0  0  0  0  0  0  0  0  0  0  0  0
    2.4814  -26.3996   29.5052 H   0  0  0  0  0  0  0  0  0  0  0  0
    1.4860  -22.0870   28.3279 H   0  0  0  0  0  0  0  0  0  0  0  0
   -1.1072  -22.1824   26.4776 H   0  0  0  0  0  0  0  0  0  0  0  0
   -4.4700  -21.7919   28.0897 H   0  0  0  0  0  0  0  0  0  0  0  0
   -3.1662  -21.1420   30.3410 H   0  0  0  0  0  0  0  0  0  0  0  0
    3.6829  -23.0248   30.7892 H   0  0  0  0  0  0  0  0  0  0  0  0
    3.8433  -23.1974   28.8272 H   0  0  0  0  0  0  0  0  0  0  0  0
  1  2  1  0
  2  3  1  0
  3  4  1  0
  4  5  2  0
  5  6  1  0
  6  7  2  0
  7  8  1  0
  8  9  2  0
  8 10  1  0
 10 11  2  0
 11 12  1  0
 12 13  2  0
 12 14  1  0
 14 15  1  0
 15 16  1  0
 16 17  2  0
 17 18  1  0
 18 19  1  0
 11 20  1  0
 20 21  1  0
  9  4  1  0
 19 15  2  0
 21  7  1  0
  1 22  1  0
  1 23  1  0
  1 24  1  0
  2 25  1  0
  2 26  1  0
  5 27  1  0
  6 28  1  0
  9 29  1  0
 10 30  1  0
 14 31  1  0
 16 32  1  0
 18 33  1  0
 19 34  1  0
 20 35  1  0
 20 36  1  0
M  END
>  <Energy>  (187) 
461.86991760171765

>  <compound_id>  (187) 
27398

>  <target_id>  (187) 
1

>  <reference_id>  (187) 
96

>  <inspiration_ids>  (187) 
[89, 96]

>  <energy_score>  (187) 
417.8167679160782

>  <distance_score>  (187) 
6.797913360333056

>  <path>  (187) 
/opt/xchem-fragalysis-2/maxwin/BulkDock/SCRATCH/511020/C27398-P96/C27398-P96.minimised.mol

>  <scratch_subdir>  (187) 
/opt/xchem-fragalysis-2/maxwin/BulkDock/SCRATCH/511020/C27398-P96

>  <fragmenstein_runtime>  (187) 
16.03305745124817

>  <fragmenstein_outcome>  (187) 
too moved

>  <fragmenstein_mode>  (187) 
expansion

>  <fragmenstein_error>  (187) 


$$$$
C27391-P96
     RDKit          3D

 39 41  0  0  0  0  0  0  0  0999 V2000
    5.9788  -22.9272   23.9037 C   0  0  0  0  0  0  0  0  0  0  0  0
    6.4266  -22.0161   24.8946 O   0  0  0  0  0  0  0  0  0  0  0  0
    5.4780  -21.4354   25.6744 C   0  0  0  0  0  0  0  0  0  0  0  0
    4.1600  -21.5202   25.5542 C   0  0  0  0  0  0  0  0  0  0  0  0
    3.3611  -20.8032   26.4448 C   0  0  0  0  0  0  0  0  0  0  0  0
    3.7992  -20.0686   27.6257 C   0  0  0  0  0  0  0  0  0  0  0  0
    5.0977  -20.0715   27.7652 C   0  0  0  0  0  0  0  0  0  0  0  0
    5.8804  -20.7154   26.7749 C   0  0  0  0  0  0  0  0  0  0  0  0
    5.1921  -19.5160   29.0252 O   0  0  0  0  0  0  0  0  0  0  0  0
    3.5858  -19.3723   29.9599 C   0  0  0  0  0  0  0  0  0  0  0  0
    2.4624  -21.3168   30.5408 C   0  0  0  0  0  0  0  0  0  0  0  0
    1.2146  -22.2078   29.2694 C   0  0  0  0  0  0  0  0  0  0  0  0
    1.7601  -23.1649   28.8142 O   0  0  0  0  0  0  0  0  0  0  0  0
   -0.4764  -21.3969   28.8096 N   0  0  0  0  0  0  0  0  0  0  0  0
   -0.3377  -20.3301   27.7687 C   0  0  0  0  0  0  0  0  0  0  0  0
   -1.8342  -22.0441   27.5229 C   0  0  0  0  0  0  0  0  0  0  0  0
   -3.8310  -21.9570   27.2879 C   0  0  0  0  0  0  0  0  0  0  0  0
   -5.0205  -22.4288   25.9404 C   0  0  0  0  0  0  0  0  0  0  0  0
   -6.0321  -21.5992   25.7157 N   0  0  0  0  0  0  0  0  0  0  0  0
   -5.7864  -20.6848   26.6299 N   0  0  0  0  0  0  0  0  0  0  0  0
   -4.9491  -21.2034   27.5843 C   0  0  0  0  0  0  0  0  0  0  0  0
    3.1398  -19.6178   29.5150 C   0  0  0  0  0  0  0  0  0  0  0  0
    6.8481  -23.2441   23.3196 H   0  0  0  0  0  0  0  0  0  0  0  0
    5.2757  -22.4655   23.2106 H   0  0  0  0  0  0  0  0  0  0  0  0
    5.5508  -23.8213   24.3598 H   0  0  0  0  0  0  0  0  0  0  0  0
    3.7472  -22.2428   24.8798 H   0  0  0  0  0  0  0  0  0  0  0  0
    2.3655  -21.2480   26.4611 H   0  0  0  0  0  0  0  0  0  0  0  0
    6.9293  -20.6769   26.6970 H   0  0  0  0  0  0  0  0  0  0  0  0
    4.4832  -18.9212   30.8106 H   0  0  0  0  0  0  0  0  0  0  0  0
    3.1869  -18.1824   30.5695 H   0  0  0  0  0  0  0  0  0  0  0  0
   -0.8437  -19.3873   27.4977 H   0  0  0  0  0  0  0  0  0  0  0  0
    0.6693  -20.3030   27.2705 H   0  0  0  0  0  0  0  0  0  0  0  0
   -0.3527  -19.5219   28.5753 H   0  0  0  0  0  0  0  0  0  0  0  0
   -1.2390  -21.8689   26.6637 H   0  0  0  0  0  0  0  0  0  0  0  0
   -1.8475  -23.1983   27.3852 H   0  0  0  0  0  0  0  0  0  0  0  0
   -4.7491  -23.0992   25.1128 H   0  0  0  0  0  0  0  0  0  0  0  0
   -6.5270  -20.0327   26.8407 H   0  0  0  0  0  0  0  0  0  0  0  0
   -5.6889  -21.6638   28.1875 H   0  0  0  0  0  0  0  0  0  0  0  0
    2.2816  -18.7807   28.9709 H   0  0  0  0  0  0  0  0  0  0  0  0
  1  2  1  0
  2  3  1  0
  3  4  2  0
  4  5  1  0
  5  6  2  0
  6  7  1  0
  7  8  2  0
  7  9  1  0
  9 10  1  0
 10 11  1  0
 11 12  1  0
 12 13  2  0
 12 14  1  0
 14 15  1  0
 14 16  1  0
 16 17  1  0
 17 18  1  0
 18 19  2  0
 19 20  1  0
 20 21  1  0
 11 22  2  0
  8  3  1  0
 21 17  2  0
 22  6  1  0
  1 23  1  0
  1 24  1  0
  1 25  1  0
  4 26  1  0
  5 27  1  0
  8 28  1  0
 10 29  1  0
 10 30  1  0
 15 31  1  0
 15 32  1  0
 15 33  1  0
 16 34  1  0
 16 35  1  0
 18 36  1  0
 20 37  1  0
 21 38  1  0
 22 39  1  0
M  END
>  <Energy>  (188) 
1708.2115704411983

>  <compound_id>  (188) 
27391

>  <target_id>  (188) 
1

>  <reference_id>  (188) 
96

>  <inspiration_ids>  (188) 
[89, 96]

>  <energy_score>  (188) 
1659.293694801268

>  <distance_score>  (188) 
4.566260231858642

>  <path>  (188) 
/opt/xchem-fragalysis-2/maxwin/BulkDock/SCRATCH/511020/C27391-P96/C27391-P96.minimised.mol

>  <scratch_subdir>  (188) 
/opt/xchem-fragalysis-2/maxwin/BulkDock/SCRATCH/511020/C27391-P96

>  <fragmenstein_runtime>  (188) 
19.84976077079773

>  <fragmenstein_outcome>  (188) 
too moved

>  <fragmenstein_mode>  (188) 
expansion

>  <fragmenstein_error>  (188) 


$$$$
C9283-P96
     RDKit          3D

 38 40  0  0  0  0  0  0  0  0999 V2000
   -2.7594  -21.8493   29.5357 C   0  0  0  0  0  0  0  0  0  0  0  0
   -1.6800  -21.6127   27.8194 N   0  0  0  0  0  0  0  0  0  0  0  0
   -3.5486  -21.6921   27.4243 C   0  0  0  0  0  0  0  0  0  0  0  0
   -4.9226  -21.1121   27.2334 C   0  0  0  0  0  0  0  0  0  0  0  0
   -5.9012  -21.7090   27.8362 C   0  0  0  0  0  0  0  0  0  0  0  0
   -7.0773  -21.1728   27.5903 C   0  0  0  0  0  0  0  0  0  0  0  0
   -6.6362  -20.1500   26.9011 N   0  0  0  0  0  0  0  0  0  0  0  0
   -5.4624  -20.2801   26.3378 N   0  0  0  0  0  0  0  0  0  0  0  0
   -0.2897  -20.2218   27.6053 C   0  0  0  0  0  0  0  0  0  0  0  0
   -0.7652  -19.1489   27.2035 O   0  0  0  0  0  0  0  0  0  0  0  0
    1.7526  -20.0743   27.5391 C   0  0  0  0  0  0  0  0  0  0  0  0
    2.4113  -18.9632   28.6798 C   0  0  0  0  0  0  0  0  0  0  0  0
    3.3250  -19.7086   29.6563 C   0  0  0  0  0  0  0  0  0  0  0  0
    2.4656  -21.6221   30.5643 C   0  0  0  0  0  0  0  0  0  0  0  0
    2.9134  -23.2146   29.8582 C   0  0  0  0  0  0  0  0  0  0  0  0
    3.9786  -23.3203   28.4680 C   0  0  0  0  0  0  0  0  0  0  0  0
    4.7583  -21.9734   27.6299 C   0  0  0  0  0  0  0  0  0  0  0  0
    4.5371  -20.2328   28.2174 C   0  0  0  0  0  0  0  0  0  0  0  0
    4.3195  -19.7809   26.9621 O   0  0  0  0  0  0  0  0  0  0  0  0
    3.2249  -20.5333   26.4251 C   0  0  0  0  0  0  0  0  0  0  0  0
    4.2177  -20.5074   25.1633 C   0  0  0  0  0  0  0  0  0  0  0  0
    4.2113  -21.6534   24.4645 F   0  0  0  0  0  0  0  0  0  0  0  0
    5.5709  -20.4850   25.4684 F   0  0  0  0  0  0  0  0  0  0  0  0
    4.0389  -19.3548   24.5045 F   0  0  0  0  0  0  0  0  0  0  0  0
   -3.5942  -22.4756   29.2112 H   0  0  0  0  0  0  0  0  0  0  0  0
   -2.7699  -21.6602   30.6272 H   0  0  0  0  0  0  0  0  0  0  0  0
   -3.2315  -20.8767   29.7037 H   0  0  0  0  0  0  0  0  0  0  0  0
   -3.5217  -22.7137   27.1199 H   0  0  0  0  0  0  0  0  0  0  0  0
   -3.7152  -20.9817   26.7633 H   0  0  0  0  0  0  0  0  0  0  0  0
   -5.6196  -22.4420   28.5268 H   0  0  0  0  0  0  0  0  0  0  0  0
   -8.0098  -21.3683   28.0992 H   0  0  0  0  0  0  0  0  0  0  0  0
   -7.0357  -19.2523   26.8175 H   0  0  0  0  0  0  0  0  0  0  0  0
    1.7840  -18.2467   29.2709 H   0  0  0  0  0  0  0  0  0  0  0  0
    1.8260  -21.8223   31.4733 H   0  0  0  0  0  0  0  0  0  0  0  0
    2.5496  -24.1172   30.3425 H   0  0  0  0  0  0  0  0  0  0  0  0
    4.3282  -24.3152   28.1772 H   0  0  0  0  0  0  0  0  0  0  0  0
    5.4654  -22.2005   26.8325 H   0  0  0  0  0  0  0  0  0  0  0  0
    3.1025  -21.6157   26.3400 H   0  0  0  0  0  0  0  0  0  0  0  0
  1  2  1  0
  2  3  1  0
  3  4  1  0
  4  5  1  0
  5  6  2  0
  6  7  1  0
  7  8  1  0
  2  9  1  0
  9 10  2  0
  9 11  1  0
 11 12  2  0
 12 13  1  0
 13 14  2  0
 14 15  1  0
 15 16  2  0
 16 17  1  0
 17 18  2  0
 18 19  1  0
 19 20  1  0
 20 21  1  0
 21 22  1  0
 21 23  1  0
 21 24  1  0
  8  4  2  0
 20 11  1  0
 18 13  1  0
  1 25  1  0
  1 26  1  0
  1 27  1  0
  3 28  1  0
  3 29  1  0
  5 30  1  0
  6 31  1  0
  7 32  1  0
 12 33  1  0
 14 34  1  0
 15 35  1  0
 16 36  1  0
 17 37  1  0
 20 38  1  0
M  END
>  <Energy>  (189) 
1644.0863789856444

>  <compound_id>  (189) 
9283

>  <target_id>  (189) 
1

>  <reference_id>  (189) 
96

>  <inspiration_ids>  (189) 
[89, 96]

>  <energy_score>  (189) 
1536.0333638936538

>  <distance_score>  (189) 
4.469328114796598

>  <path>  (189) 
/opt/xchem-fragalysis-2/maxwin/BulkDock/SCRATCH/511020/C9283-P96/C9283-P96.minimised.mol

>  <scratch_subdir>  (189) 
/opt/xchem-fragalysis-2/maxwin/BulkDock/SCRATCH/511020/C9283-P96

>  <fragmenstein_runtime>  (189) 
15.362019777297974

>  <fragmenstein_outcome>  (189) 
too moved

>  <fragmenstein_mode>  (189) 
expansion

>  <fragmenstein_error>  (189) 


$$$$
C46647-P96
     RDKit          3D

 38 41  0  0  0  0  0  0  0  0999 V2000
   -1.1357  -22.9621   33.7704 O   0  0  0  0  0  0  0  0  0  0  0  0
   -0.8649  -22.0241   32.9763 C   0  0  0  0  0  0  0  0  0  0  0  0
   -2.4123  -21.5641   32.0124 O   0  0  0  0  0  0  0  0  0  0  0  0
   -3.5175  -21.4135   30.3538 C   0  0  0  0  0  0  0  0  0  0  0  0
   -5.0569  -22.4963   29.3464 C   0  0  0  0  0  0  0  0  0  0  0  0
   -5.4844  -21.7502   27.9925 N   0  0  0  0  0  0  0  0  0  0  0  0
   -6.9839  -21.4873   27.9018 N   0  0  0  0  0  0  0  0  0  0  0  0
   -7.9623  -22.4043   28.6659 C   0  0  0  0  0  0  0  0  0  0  0  0
   -6.9170  -23.4660   29.4312 C   0  0  0  0  0  0  0  0  0  0  0  0
   -8.0062  -24.0526   30.4434 C   0  0  0  0  0  0  0  0  0  0  0  0
   -9.4313  -23.4642   30.1015 C   0  0  0  0  0  0  0  0  0  0  0  0
   -9.3979  -22.6904   28.7589 C   0  0  0  0  0  0  0  0  0  0  0  0
    1.2072  -21.3187   32.8071 C   0  0  0  0  0  0  0  0  0  0  0  0
    3.0503  -21.1522   32.7545 C   0  0  0  0  0  0  0  0  0  0  0  0
    4.0956  -19.2724   32.5618 C   0  0  0  0  0  0  0  0  0  0  0  0
    5.1488  -18.9486   31.7542 C   0  0  0  0  0  0  0  0  0  0  0  0
    4.8536  -18.4710   30.6052 C   0  0  0  0  0  0  0  0  0  0  0  0
    4.4442  -17.3145   30.9157 C   0  0  0  0  0  0  0  0  0  0  0  0
    3.2654  -17.5196   31.3723 C   0  0  0  0  0  0  0  0  0  0  0  0
    3.2279  -18.0637   32.6143 C   0  0  0  0  0  0  0  0  0  0  0  0
    1.8936  -18.2698   33.0785 O   0  0  0  0  0  0  0  0  0  0  0  0
    1.0759  -19.7203   33.5321 C   0  0  0  0  0  0  0  0  0  0  0  0
   -2.9027  -21.8585   29.6350 H   0  0  0  0  0  0  0  0  0  0  0  0
   -3.3067  -20.3720   30.1565 H   0  0  0  0  0  0  0  0  0  0  0  0
   -7.2073  -20.6892   27.3335 H   0  0  0  0  0  0  0  0  0  0  0  0
   -7.7532  -23.8333   31.4853 H   0  0  0  0  0  0  0  0  0  0  0  0
   -8.1343  -25.1245   30.2628 H   0  0  0  0  0  0  0  0  0  0  0  0
   -9.7453  -22.8041   30.9199 H   0  0  0  0  0  0  0  0  0  0  0  0
  -10.1827  -24.2622   30.0683 H   0  0  0  0  0  0  0  0  0  0  0  0
   -9.7096  -23.3431   27.9377 H   0  0  0  0  0  0  0  0  0  0  0  0
  -10.0417  -21.8078   28.7699 H   0  0  0  0  0  0  0  0  0  0  0  0
    3.8445  -21.9169   32.6736 H   0  0  0  0  0  0  0  0  0  0  0  0
    5.7432  -19.7049   31.3362 H   0  0  0  0  0  0  0  0  0  0  0  0
    4.9900  -18.9577   29.6541 H   0  0  0  0  0  0  0  0  0  0  0  0
    4.8358  -16.6077   30.1693 H   0  0  0  0  0  0  0  0  0  0  0  0
    2.4748  -17.6196   30.6119 H   0  0  0  0  0  0  0  0  0  0  0  0
    1.1370  -20.0570   34.5252 H   0  0  0  0  0  0  0  0  0  0  0  0
    0.0983  -19.2909   33.6319 H   0  0  0  0  0  0  0  0  0  0  0  0
  1  2  2  0
  2  3  1  0
  3  4  1  0
  4  5  1  0
  5  6  2  0
  6  7  1  0
  7  8  1  0
  8  9  2  0
  9 10  1  0
 10 11  1  0
 11 12  1  0
  2 13  1  0
 13 14  2  0
 14 15  1  0
 15 16  2  0
 16 17  1  0
 17 18  2  0
 18 19  1  0
 19 20  2  0
 20 21  1  0
 21 22  1  0
  9  5  1  0
 22 13  1  0
 12  8  1  0
 20 15  1  0
  4 23  1  0
  4 24  1  0
  7 25  1  0
 10 26  1  0
 10 27  1  0
 11 28  1  0
 11 29  1  0
 12 30  1  0
 12 31  1  0
 14 32  1  0
 16 33  1  0
 17 34  1  0
 18 35  1  0
 19 36  1  0
 22 37  1  0
 22 38  1  0
M  END
>  <Energy>  (190) 
1374.9943938632828

>  <compound_id>  (190) 
46647

>  <target_id>  (190) 
1

>  <reference_id>  (190) 
96

>  <inspiration_ids>  (190) 
[89, 96]

>  <energy_score>  (190) 
1284.9347180428495

>  <distance_score>  (190) 
4.576833689642672

>  <path>  (190) 
/opt/xchem-fragalysis-2/maxwin/BulkDock/SCRATCH/511020/C46647-P96/C46647-P96.minimised.mol

>  <scratch_subdir>  (190) 
/opt/xchem-fragalysis-2/maxwin/BulkDock/SCRATCH/511020/C46647-P96

>  <fragmenstein_runtime>  (190) 
15.157135248184204

>  <fragmenstein_outcome>  (190) 
too moved

>  <fragmenstein_mode>  (190) 
expansion

>  <fragmenstein_error>  (190) 


$$$$
C46648-P96
     RDKit          3D

 42 45  0  0  0  0  0  0  0  0999 V2000
    5.3425  -24.9010   22.8609 C   0  0  0  0  0  0  0  0  0  0  0  0
    5.8902  -23.6113   23.0138 O   0  0  0  0  0  0  0  0  0  0  0  0
    5.4247  -22.8485   24.0379 C   0  0  0  0  0  0  0  0  0  0  0  0
    6.2509  -21.8274   24.3718 C   0  0  0  0  0  0  0  0  0  0  0  0
    5.8121  -20.8539   25.2290 C   0  0  0  0  0  0  0  0  0  0  0  0
    4.5357  -20.9094   25.7610 C   0  0  0  0  0  0  0  0  0  0  0  0
    3.6547  -21.9057   25.5703 C   0  0  0  0  0  0  0  0  0  0  0  0
    4.1464  -22.8256   24.5918 C   0  0  0  0  0  0  0  0  0  0  0  0
    2.0393  -21.6575   26.1417 C   0  0  0  0  0  0  0  0  0  0  0  0
    1.3673  -20.9346   27.0566 C   0  0  0  0  0  0  0  0  0  0  0  0
   -0.4798  -20.7497   27.7817 C   0  0  0  0  0  0  0  0  0  0  0  0
   -0.6160  -19.6412   28.3761 O   0  0  0  0  0  0  0  0  0  0  0  0
   -1.8789  -21.8752   27.5399 O   0  0  0  0  0  0  0  0  0  0  0  0
   -3.7770  -21.8573   28.1614 C   0  0  0  0  0  0  0  0  0  0  0  0
   -5.7743  -22.2505   28.2909 C   0  0  0  0  0  0  0  0  0  0  0  0
   -6.7255  -21.4034   27.6789 N   0  0  0  0  0  0  0  0  0  0  0  0
   -8.0784  -21.7659   28.1902 N   0  0  0  0  0  0  0  0  0  0  0  0
   -8.4134  -22.9709   28.7812 C   0  0  0  0  0  0  0  0  0  0  0  0
   -7.1412  -23.4520   29.2922 C   0  0  0  0  0  0  0  0  0  0  0  0
   -7.8092  -23.6902   30.8520 C   0  0  0  0  0  0  0  0  0  0  0  0
   -9.2094  -24.2730   30.5294 C   0  0  0  0  0  0  0  0  0  0  0  0
   -9.7020  -23.3980   29.3714 C   0  0  0  0  0  0  0  0  0  0  0  0
    2.9141  -19.9915   27.1206 C   0  0  0  0  0  0  0  0  0  0  0  0
    3.9872  -19.7882   26.1932 O   0  0  0  0  0  0  0  0  0  0  0  0
    4.3135  -24.8496   22.4975 H   0  0  0  0  0  0  0  0  0  0  0  0
    5.9254  -25.4213   22.0940 H   0  0  0  0  0  0  0  0  0  0  0  0
    5.4374  -25.4806   23.7821 H   0  0  0  0  0  0  0  0  0  0  0  0
    7.0990  -21.6318   23.7442 H   0  0  0  0  0  0  0  0  0  0  0  0
    6.3640  -19.9355   25.2230 H   0  0  0  0  0  0  0  0  0  0  0  0
    3.4369  -23.4229   24.0376 H   0  0  0  0  0  0  0  0  0  0  0  0
    1.2963  -21.9855   25.3546 H   0  0  0  0  0  0  0  0  0  0  0  0
   -3.5622  -22.5426   28.9481 H   0  0  0  0  0  0  0  0  0  0  0  0
   -3.9774  -22.0984   27.1403 H   0  0  0  0  0  0  0  0  0  0  0  0
   -8.7440  -21.0165   28.2673 H   0  0  0  0  0  0  0  0  0  0  0  0
   -8.0245  -22.7480   31.3516 H   0  0  0  0  0  0  0  0  0  0  0  0
   -7.3353  -24.2330   31.6572 H   0  0  0  0  0  0  0  0  0  0  0  0
   -9.1139  -25.3142   30.2053 H   0  0  0  0  0  0  0  0  0  0  0  0
   -9.8862  -24.2383   31.3884 H   0  0  0  0  0  0  0  0  0  0  0  0
  -10.3086  -23.9728   28.6665 H   0  0  0  0  0  0  0  0  0  0  0  0
  -10.2893  -22.5501   29.7359 H   0  0  0  0  0  0  0  0  0  0  0  0
    3.8048  -20.2797   27.7016 H   0  0  0  0  0  0  0  0  0  0  0  0
    2.6397  -19.3637   27.9208 H   0  0  0  0  0  0  0  0  0  0  0  0
  1  2  1  0
  2  3  1  0
  3  4  2  0
  4  5  1  0
  5  6  2  0
  6  7  1  0
  7  8  2  0
  7  9  1  0
  9 10  2  0
 10 11  1  0
 11 12  2  0
 11 13  1  0
 13 14  1  0
 14 15  1  0
 15 16  2  0
 16 17  1  0
 17 18  1  0
 18 19  2  0
 19 20  1  0
 20 21  1  0
 21 22  1  0
 10 23  1  0
 23 24  1  0
  8  3  1  0
 19 15  1  0
 24  6  1  0
 22 18  1  0
  1 25  1  0
  1 26  1  0
  1 27  1  0
  4 28  1  0
  5 29  1  0
  8 30  1  0
  9 31  1  0
 14 32  1  0
 14 33  1  0
 17 34  1  0
 20 35  1  0
 20 36  1  0
 21 37  1  0
 21 38  1  0
 22 39  1  0
 22 40  1  0
 23 41  1  0
 23 42  1  0
M  END
>  <Energy>  (191) 
813.57269622386991

>  <compound_id>  (191) 
46648

>  <target_id>  (191) 
1

>  <reference_id>  (191) 
96

>  <inspiration_ids>  (191) 
[89, 96]

>  <energy_score>  (191) 
722.6844850768596

>  <distance_score>  (191) 
4.4017710856122445

>  <path>  (191) 
/opt/xchem-fragalysis-2/maxwin/BulkDock/SCRATCH/511020/C46648-P96/C46648-P96.minimised.mol

>  <scratch_subdir>  (191) 
/opt/xchem-fragalysis-2/maxwin/BulkDock/SCRATCH/511020/C46648-P96

>  <fragmenstein_runtime>  (191) 
19.60572123527527

>  <fragmenstein_outcome>  (191) 
too moved

>  <fragmenstein_mode>  (191) 
expansion

>  <fragmenstein_error>  (191) 


$$$$
C46649-P96
     RDKit          3D

 38 41  0  0  0  0  0  0  0  0999 V2000
   -1.5348  -21.9973   27.2399 O   0  0  0  0  0  0  0  0  0  0  0  0
   -1.1262  -22.9657   26.4485 C   0  0  0  0  0  0  0  0  0  0  0  0
   -2.0086  -24.1918   26.6589 O   0  0  0  0  0  0  0  0  0  0  0  0
   -2.7497  -25.6199   27.8532 C   0  0  0  0  0  0  0  0  0  0  0  0
   -4.5163  -26.5185   27.7706 C   0  0  0  0  0  0  0  0  0  0  0  0
   -4.6015  -27.6932   26.9903 N   0  0  0  0  0  0  0  0  0  0  0  0
   -5.9615  -27.8735   26.4909 N   0  0  0  0  0  0  0  0  0  0  0  0
   -6.9811  -26.9574   26.9987 C   0  0  0  0  0  0  0  0  0  0  0  0
   -6.2343  -26.0760   27.9715 C   0  0  0  0  0  0  0  0  0  0  0  0
   -7.4764  -25.3816   28.8632 C   0  0  0  0  0  0  0  0  0  0  0  0
   -8.8223  -25.7074   28.1073 C   0  0  0  0  0  0  0  0  0  0  0  0
   -8.4952  -26.8098   27.0047 C   0  0  0  0  0  0  0  0  0  0  0  0
    0.6148  -22.3638   25.4951 C   0  0  0  0  0  0  0  0  0  0  0  0
    1.4401  -22.7991   24.3738 C   0  0  0  0  0  0  0  0  0  0  0  0
    3.3488  -22.8301   24.5661 C   0  0  0  0  0  0  0  0  0  0  0  0
    4.2167  -23.5044   23.6796 C   0  0  0  0  0  0  0  0  0  0  0  0
    5.5699  -23.5197   23.9685 C   0  0  0  0  0  0  0  0  0  0  0  0
    6.6103  -24.5356   23.0641 Cl  0  0  0  0  0  0  0  0  0  0  0  0
    6.0737  -22.8002   25.0467 C   0  0  0  0  0  0  0  0  0  0  0  0
    5.2588  -21.9548   25.7876 C   0  0  0  0  0  0  0  0  0  0  0  0
    3.9015  -21.9768   25.5361 C   0  0  0  0  0  0  0  0  0  0  0  0
    3.1038  -21.1133   26.1875 O   0  0  0  0  0  0  0  0  0  0  0  0
    1.7152  -21.5681   26.5620 C   0  0  0  0  0  0  0  0  0  0  0  0
   -2.0529  -25.8530   28.6606 H   0  0  0  0  0  0  0  0  0  0  0  0
   -2.4805  -26.5133   27.2489 H   0  0  0  0  0  0  0  0  0  0  0  0
   -6.1236  -28.6664   25.8831 H   0  0  0  0  0  0  0  0  0  0  0  0
   -7.6597  -25.8540   29.8134 H   0  0  0  0  0  0  0  0  0  0  0  0
   -7.4194  -24.3358   29.1512 H   0  0  0  0  0  0  0  0  0  0  0  0
   -9.2527  -24.7950   27.6783 H   0  0  0  0  0  0  0  0  0  0  0  0
   -9.6239  -26.0184   28.7903 H   0  0  0  0  0  0  0  0  0  0  0  0
   -8.9177  -27.8030   27.1190 H   0  0  0  0  0  0  0  0  0  0  0  0
   -8.9766  -26.4130   26.1198 H   0  0  0  0  0  0  0  0  0  0  0  0
    1.2746  -23.5282   23.5909 H   0  0  0  0  0  0  0  0  0  0  0  0
    3.8225  -24.0973   22.8660 H   0  0  0  0  0  0  0  0  0  0  0  0
    7.1032  -22.9339   25.3233 H   0  0  0  0  0  0  0  0  0  0  0  0
    5.6636  -21.3265   26.5728 H   0  0  0  0  0  0  0  0  0  0  0  0
    1.2388  -20.7209   27.0434 H   0  0  0  0  0  0  0  0  0  0  0  0
    1.9091  -22.3529   27.2767 H   0  0  0  0  0  0  0  0  0  0  0  0
  1  2  2  0
  2  3  1  0
  3  4  1  0
  4  5  1  0
  5  6  2  0
  6  7  1  0
  7  8  1  0
  8  9  2  0
  9 10  1  0
 10 11  1  0
 11 12  1  0
  2 13  1  0
 13 14  2  0
 14 15  1  0
 15 16  2  0
 16 17  1  0
 17 18  1  0
 17 19  2  0
 19 20  1  0
 20 21  2  0
 21 22  1  0
 22 23  1  0
  9  5  1  0
 23 13  1  0
 12  8  1  0
 21 15  1  0
  4 24  1  0
  4 25  1  0
  7 26  1  0
 10 27  1  0
 10 28  1  0
 11 29  1  0
 11 30  1  0
 12 31  1  0
 12 32  1  0
 14 33  1  0
 16 34  1  0
 19 35  1  0
 20 36  1  0
 23 37  1  0
 23 38  1  0
M  END
>  <Energy>  (192) 
578.40390752747282

>  <compound_id>  (192) 
46649

>  <target_id>  (192) 
1

>  <reference_id>  (192) 
96

>  <inspiration_ids>  (192) 
[89, 96]

>  <energy_score>  (192) 
479.7352502184068

>  <distance_score>  (192) 
5.9750039642621475

>  <path>  (192) 
/opt/xchem-fragalysis-2/maxwin/BulkDock/SCRATCH/511020/C46649-P96/C46649-P96.minimised.mol

>  <scratch_subdir>  (192) 
/opt/xchem-fragalysis-2/maxwin/BulkDock/SCRATCH/511020/C46649-P96

>  <fragmenstein_runtime>  (192) 
15.647011995315552

>  <fragmenstein_outcome>  (192) 
too moved

>  <fragmenstein_mode>  (192) 
expansion

>  <fragmenstein_error>  (192) 


$$$$
C27392-P96
     RDKit          3D

 35 37  0  0  0  0  0  0  0  0999 V2000
    6.0868  -23.8353   27.3515 C   0  0  0  0  0  0  0  0  0  0  0  0
    4.8332  -24.0707   27.9681 O   0  0  0  0  0  0  0  0  0  0  0  0
    4.1039  -22.9123   28.1997 C   0  0  0  0  0  0  0  0  0  0  0  0
    3.0062  -23.1501   29.6470 C   0  0  0  0  0  0  0  0  0  0  0  0
    2.4391  -21.6448   30.5581 C   0  0  0  0  0  0  0  0  0  0  0  0
    3.2084  -19.6698   29.7410 C   0  0  0  0  0  0  0  0  0  0  0  0
    4.5543  -19.6622   28.6305 C   0  0  0  0  0  0  0  0  0  0  0  0
    4.7836  -21.2311   27.7095 C   0  0  0  0  0  0  0  0  0  0  0  0
    4.7721  -18.8284   30.1983 O   0  0  0  0  0  0  0  0  0  0  0  0
    3.4054  -17.7769   30.9373 C   0  0  0  0  0  0  0  0  0  0  0  0
    1.8016  -17.5066   30.0156 C   0  0  0  0  0  0  0  0  0  0  0  0
   -0.1001  -17.3557   29.8277 C   0  0  0  0  0  0  0  0  0  0  0  0
   -0.4440  -16.2203   30.0718 O   0  0  0  0  0  0  0  0  0  0  0  0
   -1.3880  -18.8270   29.4703 O   0  0  0  0  0  0  0  0  0  0  0  0
   -3.1018  -19.9962   29.6604 C   0  0  0  0  0  0  0  0  0  0  0  0
   -4.2601  -20.6174   27.9538 C   0  0  0  0  0  0  0  0  0  0  0  0
   -4.1470  -21.8255   27.4147 C   0  0  0  0  0  0  0  0  0  0  0  0
   -5.1514  -22.0153   26.5443 N   0  0  0  0  0  0  0  0  0  0  0  0
   -6.1244  -21.4742   27.1646 N   0  0  0  0  0  0  0  0  0  0  0  0
   -5.5469  -20.3426   27.5237 C   0  0  0  0  0  0  0  0  0  0  0  0
    2.0984  -18.4543   29.2398 C   0  0  0  0  0  0  0  0  0  0  0  0
    6.5823  -24.8023   27.2210 H   0  0  0  0  0  0  0  0  0  0  0  0
    5.9791  -23.3803   26.3618 H   0  0  0  0  0  0  0  0  0  0  0  0
    6.7212  -23.2220   27.9962 H   0  0  0  0  0  0  0  0  0  0  0  0
    2.7885  -24.1369   30.0392 H   0  0  0  0  0  0  0  0  0  0  0  0
    1.7307  -21.8873   31.3786 H   0  0  0  0  0  0  0  0  0  0  0  0
    5.4810  -21.1924   26.8711 H   0  0  0  0  0  0  0  0  0  0  0  0
    4.0267  -16.9299   30.9322 H   0  0  0  0  0  0  0  0  0  0  0  0
    3.3770  -17.9773   32.0094 H   0  0  0  0  0  0  0  0  0  0  0  0
   -3.2516  -20.2602   30.7098 H   0  0  0  0  0  0  0  0  0  0  0  0
   -3.0031  -21.1822   29.7429 H   0  0  0  0  0  0  0  0  0  0  0  0
   -3.3032  -22.4893   27.5628 H   0  0  0  0  0  0  0  0  0  0  0  0
   -7.0763  -21.6575   26.8880 H   0  0  0  0  0  0  0  0  0  0  0  0
   -6.2750  -19.5646   27.5004 H   0  0  0  0  0  0  0  0  0  0  0  0
    1.0850  -18.7265   28.9689 H   0  0  0  0  0  0  0  0  0  0  0  0
  1  2  1  0
  2  3  1  0
  3  4  2  0
  4  5  1  0
  5  6  2  0
  6  7  1  0
  7  8  2  0
  7  9  1  0
  9 10  1  0
 10 11  1  0
 11 12  1  0
 12 13  2  0
 12 14  1  0
 14 15  1  0
 15 16  1  0
 16 17  1  0
 17 18  2  0
 18 19  1  0
 19 20  1  0
 11 21  2  0
  8  3  1  0
 20 16  2  0
 21  6  1  0
  1 22  1  0
  1 23  1  0
  1 24  1  0
  4 25  1  0
  5 26  1  0
  8 27  1  0
 10 28  1  0
 10 29  1  0
 15 30  1  0
 15 31  1  0
 17 32  1  0
 19 33  1  0
 20 34  1  0
 21 35  1  0
M  END
>  <Energy>  (193) 
1558.1561441664087

>  <compound_id>  (193) 
27392

>  <target_id>  (193) 
1

>  <reference_id>  (193) 
96

>  <inspiration_ids>  (193) 
[89, 96]

>  <energy_score>  (193) 
1511.0960925123975

>  <distance_score>  (193) 
4.5300582389459025

>  <path>  (193) 
/opt/xchem-fragalysis-2/maxwin/BulkDock/SCRATCH/511020/C27392-P96/C27392-P96.minimised.mol

>  <scratch_subdir>  (193) 
/opt/xchem-fragalysis-2/maxwin/BulkDock/SCRATCH/511020/C27392-P96

>  <fragmenstein_runtime>  (193) 
12.469014644622803

>  <fragmenstein_outcome>  (193) 
too moved

>  <fragmenstein_mode>  (193) 
expansion

>  <fragmenstein_error>  (193) 


$$$$
C27393-P96
     RDKit          3D

 36 38  0  0  0  0  0  0  0  0999 V2000
   -0.4835  -20.8029   27.8053 O   0  0  0  0  0  0  0  0  0  0  0  0
   -0.6493  -21.5962   28.7344 C   0  0  0  0  0  0  0  0  0  0  0  0
   -2.8526  -21.7870   29.1971 C   0  0  0  0  0  0  0  0  0  0  0  0
   -4.6821  -22.3141   29.2024 N   0  0  0  0  0  0  0  0  0  0  0  0
   -6.0400  -21.8986   28.0796 C   0  0  0  0  0  0  0  0  0  0  0  0
   -5.9222  -21.2742   27.0794 O   0  0  0  0  0  0  0  0  0  0  0  0
   -7.9308  -22.4249   28.6854 C   0  0  0  0  0  0  0  0  0  0  0  0
   -8.1692  -23.2606   29.8008 C   0  0  0  0  0  0  0  0  0  0  0  0
   -9.5251  -23.3642   30.3941 C   0  0  0  0  0  0  0  0  0  0  0  0
   -9.6816  -23.6959   31.7437 C   0  0  0  0  0  0  0  0  0  0  0  0
  -10.8979  -23.4433   32.3764 C   0  0  0  0  0  0  0  0  0  0  0  0
  -11.9806  -22.9493   31.6531 C   0  0  0  0  0  0  0  0  0  0  0  0
  -11.8317  -22.6505   30.3008 C   0  0  0  0  0  0  0  0  0  0  0  0
  -10.6003  -22.8238   29.6858 C   0  0  0  0  0  0  0  0  0  0  0  0
  -10.4308  -22.3259   28.4142 O   0  0  0  0  0  0  0  0  0  0  0  0
   -9.2030  -22.8218   27.8584 C   0  0  0  0  0  0  0  0  0  0  0  0
    0.7315  -22.7305   29.6378 N   0  0  0  0  0  0  0  0  0  0  0  0
    2.1975  -23.0043   29.3751 C   0  0  0  0  0  0  0  0  0  0  0  0
    3.5112  -23.3655   28.4949 C   0  0  0  0  0  0  0  0  0  0  0  0
    4.2875  -24.3221   29.0225 N   0  0  0  0  0  0  0  0  0  0  0  0
    3.7044  -24.5724   30.1712 N   0  0  0  0  0  0  0  0  0  0  0  0
    2.6242  -23.8051   30.4682 C   0  0  0  0  0  0  0  0  0  0  0  0
   -3.1437  -21.0443   29.9597 H   0  0  0  0  0  0  0  0  0  0  0  0
   -3.1439  -22.0073   28.1126 H   0  0  0  0  0  0  0  0  0  0  0  0
   -5.0367  -22.7532   29.9858 H   0  0  0  0  0  0  0  0  0  0  0  0
   -7.4242  -23.5706   30.5082 H   0  0  0  0  0  0  0  0  0  0  0  0
   -8.8392  -24.0495   32.3333 H   0  0  0  0  0  0  0  0  0  0  0  0
  -10.9905  -23.5826   33.4479 H   0  0  0  0  0  0  0  0  0  0  0  0
  -12.9270  -22.7519   32.1499 H   0  0  0  0  0  0  0  0  0  0  0  0
  -12.6514  -22.2236   29.7390 H   0  0  0  0  0  0  0  0  0  0  0  0
   -9.2103  -22.7704   26.7955 H   0  0  0  0  0  0  0  0  0  0  0  0
   -9.3022  -23.9269   27.8962 H   0  0  0  0  0  0  0  0  0  0  0  0
    0.3290  -23.3436   30.2975 H   0  0  0  0  0  0  0  0  0  0  0  0
    3.7596  -23.0861   27.4708 H   0  0  0  0  0  0  0  0  0  0  0  0
    4.1146  -25.3079   30.7266 H   0  0  0  0  0  0  0  0  0  0  0  0
    2.1661  -23.9475   31.4332 H   0  0  0  0  0  0  0  0  0  0  0  0
  1  2  2  0
  2  3  1  0
  3  4  1  0
  4  5  1  0
  5  6  2  0
  5  7  1  0
  7  8  2  0
  8  9  1  0
  9 10  2  0
 10 11  1  0
 11 12  2  0
 12 13  1  0
 13 14  2  0
 14 15  1  0
 15 16  1  0
  2 17  1  0
 17 18  1  0
 18 19  1  0
 19 20  2  0
 20 21  1  0
 21 22  1  0
 16  7  1  0
 22 18  2  0
 14  9  1  0
  3 23  1  0
  3 24  1  0
  4 25  1  0
  8 26  1  0
 10 27  1  0
 11 28  1  0
 12 29  1  0
 13 30  1  0
 16 31  1  0
 16 32  1  0
 17 33  1  0
 19 34  1  0
 21 35  1  0
 22 36  1  0
M  END
>  <Energy>  (194) 
667.90966325608838

>  <compound_id>  (194) 
27393

>  <target_id>  (194) 
1

>  <reference_id>  (194) 
96

>  <inspiration_ids>  (194) 
[89, 96]

>  <energy_score>  (194) 
591.7295079820086

>  <distance_score>  (194) 
4.54767504222034

>  <path>  (194) 
/opt/xchem-fragalysis-2/maxwin/BulkDock/SCRATCH/511020/C27393-P96/C27393-P96.minimised.mol

>  <scratch_subdir>  (194) 
/opt/xchem-fragalysis-2/maxwin/BulkDock/SCRATCH/511020/C27393-P96

>  <fragmenstein_runtime>  (194) 
23.96548295021057

>  <fragmenstein_outcome>  (194) 
too moved

>  <fragmenstein_mode>  (194) 
expansion

>  <fragmenstein_error>  (194) 


$$$$
C27395-P96
     RDKit          3D

 42 44  0  0  0  0  0  0  0  0999 V2000
   -9.9602  -21.5909   28.1303 O   0  0  0  0  0  0  0  0  0  0  0  0
   -8.9870  -22.2473   27.7399 C   0  0  0  0  0  0  0  0  0  0  0  0
   -9.3046  -23.3898   27.1203 O   0  0  0  0  0  0  0  0  0  0  0  0
   -7.2145  -21.8150   28.0778 C   0  0  0  0  0  0  0  0  0  0  0  0
   -5.2151  -21.6242   27.4780 C   0  0  0  0  0  0  0  0  0  0  0  0
   -3.1776  -22.0714   27.7527 C   0  0  0  0  0  0  0  0  0  0  0  0
   -1.1548  -21.4473   27.6763 C   0  0  0  0  0  0  0  0  0  0  0  0
    0.7040  -20.9419   27.1391 C   0  0  0  0  0  0  0  0  0  0  0  0
    1.6833  -21.7931   27.2327 N   0  0  0  0  0  0  0  0  0  0  0  0
    1.2160  -22.2772   28.6931 N   0  0  0  0  0  0  0  0  0  0  0  0
   -0.3348  -21.4680   28.7401 C   0  0  0  0  0  0  0  0  0  0  0  0
   -7.8268  -23.1789   29.2941 N   0  0  0  0  0  0  0  0  0  0  0  0
   -9.0553  -23.1198   30.1263 C   0  0  0  0  0  0  0  0  0  0  0  0
  -10.0423  -24.2745   30.0397 C   0  0  0  0  0  0  0  0  0  0  0  0
  -11.2735  -24.1047   30.5789 C   0  0  0  0  0  0  0  0  0  0  0  0
  -10.9829  -23.8026   32.0008 C   0  0  0  0  0  0  0  0  0  0  0  0
  -11.6059  -22.7563   32.6612 C   0  0  0  0  0  0  0  0  0  0  0  0
  -11.1073  -22.3885   33.9017 C   0  0  0  0  0  0  0  0  0  0  0  0
   -9.9828  -23.0370   34.4442 C   0  0  0  0  0  0  0  0  0  0  0  0
   -9.3258  -24.0556   33.7754 C   0  0  0  0  0  0  0  0  0  0  0  0
   -9.8678  -24.4764   32.5831 C   0  0  0  0  0  0  0  0  0  0  0  0
   -9.2075  -25.4989   31.9421 O   0  0  0  0  0  0  0  0  0  0  0  0
   -9.4406  -25.5408   30.5219 C   0  0  0  0  0  0  0  0  0  0  0  0
  -10.2851  -23.3206   27.1254 H   0  0  0  0  0  0  0  0  0  0  0  0
   -7.4434  -20.8099   28.2394 H   0  0  0  0  0  0  0  0  0  0  0  0
   -5.1590  -20.5417   27.4236 H   0  0  0  0  0  0  0  0  0  0  0  0
   -5.3661  -21.8884   26.4269 H   0  0  0  0  0  0  0  0  0  0  0  0
   -3.3611  -22.0900   28.8482 H   0  0  0  0  0  0  0  0  0  0  0  0
   -2.9823  -23.1214   27.4795 H   0  0  0  0  0  0  0  0  0  0  0  0
    0.8916  -21.3400   26.0796 H   0  0  0  0  0  0  0  0  0  0  0  0
    1.7074  -22.8143   29.4279 H   0  0  0  0  0  0  0  0  0  0  0  0
    0.1156  -21.5093   29.6531 H   0  0  0  0  0  0  0  0  0  0  0  0
   -7.9854  -24.0428   28.7575 H   0  0  0  0  0  0  0  0  0  0  0  0
   -8.6387  -23.0378   31.1342 H   0  0  0  0  0  0  0  0  0  0  0  0
   -9.7564  -22.2933   30.0283 H   0  0  0  0  0  0  0  0  0  0  0  0
  -12.0333  -24.8837   30.5192 H   0  0  0  0  0  0  0  0  0  0  0  0
  -12.4325  -22.2139   32.2150 H   0  0  0  0  0  0  0  0  0  0  0  0
  -11.5872  -21.5936   34.4700 H   0  0  0  0  0  0  0  0  0  0  0  0
   -9.6529  -22.7781   35.4445 H   0  0  0  0  0  0  0  0  0  0  0  0
   -8.4453  -24.5352   34.1841 H   0  0  0  0  0  0  0  0  0  0  0  0
   -8.4834  -25.6775   30.0284 H   0  0  0  0  0  0  0  0  0  0  0  0
  -10.1104  -26.3741   30.2878 H   0  0  0  0  0  0  0  0  0  0  0  0
  1  2  2  0
  2  3  1  0
  2  4  1  0
  4  5  1  0
  5  6  1  0
  6  7  1  0
  7  8  1  0
  8  9  2  0
  9 10  1  0
 10 11  1  0
  4 12  1  0
 12 13  1  0
 13 14  1  0
 14 15  2  0
 15 16  1  0
 16 17  2  0
 17 18  1  0
 18 19  2  0
 19 20  1  0
 20 21  2  0
 21 22  1  0
 22 23  1  0
 11  7  2  0
 23 14  1  0
 21 16  1  0
  3 24  1  0
  4 25  1  0
  5 26  1  0
  5 27  1  0
  6 28  1  0
  6 29  1  0
  8 30  1  0
 10 31  1  0
 11 32  1  0
 12 33  1  0
 13 34  1  0
 13 35  1  0
 15 36  1  0
 17 37  1  0
 18 38  1  0
 19 39  1  0
 20 40  1  0
 23 41  1  0
 23 42  1  0
M  END
>  <Energy>  (195) 
964.28485012186377

>  <compound_id>  (195) 
27395

>  <target_id>  (195) 
1

>  <reference_id>  (195) 
96

>  <inspiration_ids>  (195) 
[89, 96]

>  <energy_score>  (195) 
882.0914088158092

>  <distance_score>  (195) 
4.000587015147655

>  <path>  (195) 
/opt/xchem-fragalysis-2/maxwin/BulkDock/SCRATCH/511020/C27395-P96/C27395-P96.minimised.mol

>  <scratch_subdir>  (195) 
/opt/xchem-fragalysis-2/maxwin/BulkDock/SCRATCH/511020/C27395-P96

>  <fragmenstein_runtime>  (195) 
27.155283451080322

>  <fragmenstein_outcome>  (195) 
too moved

>  <fragmenstein_mode>  (195) 
expansion

>  <fragmenstein_error>  (195) 


$$$$
C27396-P96
     RDKit          3D

 41 43  0  0  0  0  0  0  0  0999 V2000
   -7.9149  -24.3043   29.1220 O   0  0  0  0  0  0  0  0  0  0  0  0
   -8.4953  -23.2453   29.0582 C   0  0  0  0  0  0  0  0  0  0  0  0
   -8.1084  -21.9453   28.3674 N   0  0  0  0  0  0  0  0  0  0  0  0
   -6.6346  -21.4803   27.5186 C   0  0  0  0  0  0  0  0  0  0  0  0
   -4.7745  -21.5209   27.6400 C   0  0  0  0  0  0  0  0  0  0  0  0
   -2.8449  -22.0880   27.7825 C   0  0  0  0  0  0  0  0  0  0  0  0
   -0.8682  -21.1592   27.8621 C   0  0  0  0  0  0  0  0  0  0  0  0
    0.9958  -20.8350   27.0731 C   0  0  0  0  0  0  0  0  0  0  0  0
    2.3939  -20.0254   27.1239 C   0  0  0  0  0  0  0  0  0  0  0  0
    3.5504  -20.3197   26.4627 N   0  0  0  0  0  0  0  0  0  0  0  0
    3.1745  -21.4442   25.9348 N   0  0  0  0  0  0  0  0  0  0  0  0
    1.8921  -21.7133   26.5538 C   0  0  0  0  0  0  0  0  0  0  0  0
   -9.7352  -23.2493   29.9010 C   0  0  0  0  0  0  0  0  0  0  0  0
  -10.7106  -22.3324   29.9779 C   0  0  0  0  0  0  0  0  0  0  0  0
  -11.3540  -22.2536   31.3032 C   0  0  0  0  0  0  0  0  0  0  0  0
  -12.4608  -21.4499   31.5320 C   0  0  0  0  0  0  0  0  0  0  0  0
  -12.9527  -21.2616   32.8201 C   0  0  0  0  0  0  0  0  0  0  0  0
  -14.5247  -20.2545   33.1211 Br  0  0  0  0  0  0  0  0  0  0  0  0
  -12.2837  -21.8046   33.9019 C   0  0  0  0  0  0  0  0  0  0  0  0
  -11.1598  -22.5883   33.7022 C   0  0  0  0  0  0  0  0  0  0  0  0
  -10.7405  -22.8557   32.4119 C   0  0  0  0  0  0  0  0  0  0  0  0
   -9.6814  -23.7069   32.2958 O   0  0  0  0  0  0  0  0  0  0  0  0
   -9.6636  -24.3100   30.9973 C   0  0  0  0  0  0  0  0  0  0  0  0
   -8.8713  -21.2833   28.4488 H   0  0  0  0  0  0  0  0  0  0  0  0
   -6.8354  -21.8107   26.5046 H   0  0  0  0  0  0  0  0  0  0  0  0
   -6.8154  -20.4217   27.5880 H   0  0  0  0  0  0  0  0  0  0  0  0
   -4.8807  -21.9945   26.6706 H   0  0  0  0  0  0  0  0  0  0  0  0
   -5.0107  -22.1136   28.5171 H   0  0  0  0  0  0  0  0  0  0  0  0
   -3.2464  -21.4588   27.0992 H   0  0  0  0  0  0  0  0  0  0  0  0
   -3.1920  -22.0473   28.8603 H   0  0  0  0  0  0  0  0  0  0  0  0
   -0.4556  -21.5602   28.7633 H   0  0  0  0  0  0  0  0  0  0  0  0
   -0.7976  -20.0528   28.1303 H   0  0  0  0  0  0  0  0  0  0  0  0
    2.6146  -19.4205   27.9597 H   0  0  0  0  0  0  0  0  0  0  0  0
    3.8292  -22.0552   25.4469 H   0  0  0  0  0  0  0  0  0  0  0  0
    2.0601  -22.5583   27.2100 H   0  0  0  0  0  0  0  0  0  0  0  0
  -10.8419  -21.5120   29.2816 H   0  0  0  0  0  0  0  0  0  0  0  0
  -12.9173  -20.9465   30.7050 H   0  0  0  0  0  0  0  0  0  0  0  0
  -12.6305  -21.6328   34.9083 H   0  0  0  0  0  0  0  0  0  0  0  0
  -10.6273  -22.9980   34.5532 H   0  0  0  0  0  0  0  0  0  0  0  0
   -8.7671  -24.9320   30.9921 H   0  0  0  0  0  0  0  0  0  0  0  0
  -10.5057  -25.0105   30.9014 H   0  0  0  0  0  0  0  0  0  0  0  0
  1  2  2  0
  2  3  1  0
  3  4  1  0
  4  5  1  0
  5  6  1  0
  6  7  1  0
  7  8  1  0
  8  9  1  0
  9 10  2  0
 10 11  1  0
 11 12  1  0
  2 13  1  0
 13 14  2  0
 14 15  1  0
 15 16  2  0
 16 17  1  0
 17 18  1  0
 17 19  2  0
 19 20  1  0
 20 21  2  0
 21 22  1  0
 22 23  1  0
 12  8  2  0
 23 13  1  0
 21 15  1  0
  3 24  1  0
  4 25  1  0
  4 26  1  0
  5 27  1  0
  5 28  1  0
  6 29  1  0
  6 30  1  0
  7 31  1  0
  7 32  1  0
  9 33  1  0
 11 34  1  0
 12 35  1  0
 14 36  1  0
 16 37  1  0
 19 38  1  0
 20 39  1  0
 23 40  1  0
 23 41  1  0
M  END
>  <Energy>  (196) 
664.36246720691395

>  <compound_id>  (196) 
27396

>  <target_id>  (196) 
1

>  <reference_id>  (196) 
96

>  <inspiration_ids>  (196) 
[89, 96]

>  <energy_score>  (196) 
632.6064193923896

>  <distance_score>  (196) 
3.690053467693113

>  <path>  (196) 
/opt/xchem-fragalysis-2/maxwin/BulkDock/SCRATCH/511020/C27396-P96/C27396-P96.minimised.mol

>  <scratch_subdir>  (196) 
/opt/xchem-fragalysis-2/maxwin/BulkDock/SCRATCH/511020/C27396-P96

>  <fragmenstein_runtime>  (196) 
34.46136975288391

>  <fragmenstein_outcome>  (196) 
too moved

>  <fragmenstein_mode>  (196) 
expansion

>  <fragmenstein_error>  (196) 


$$$$
C27397-P96
     RDKit          3D

 43 45  0  0  0  0  0  0  0  0999 V2000
   -1.2099  -21.6668   26.9803 O   0  0  0  0  0  0  0  0  0  0  0  0
   -0.7511  -22.3453   25.9852 C   0  0  0  0  0  0  0  0  0  0  0  0
   -2.0088  -23.7211   25.2714 C   0  0  0  0  0  0  0  0  0  0  0  0
   -3.7676  -23.6559   24.5363 C   0  0  0  0  0  0  0  0  0  0  0  0
   -5.5530  -23.1603   24.5162 C   0  0  0  0  0  0  0  0  0  0  0  0
   -6.9054  -22.6300   25.4646 N   0  0  0  0  0  0  0  0  0  0  0  0
   -8.4462  -23.0447   26.5925 C   0  0  0  0  0  0  0  0  0  0  0  0
   -9.1615  -23.5136   27.9868 C   0  0  0  0  0  0  0  0  0  0  0  0
  -10.1106  -22.7049   28.5095 C   0  0  0  0  0  0  0  0  0  0  0  0
  -10.5274  -22.9153   29.8907 C   0  0  0  0  0  0  0  0  0  0  0  0
  -11.1549  -21.8948   30.6163 C   0  0  0  0  0  0  0  0  0  0  0  0
  -11.3102  -22.0131   31.9982 C   0  0  0  0  0  0  0  0  0  0  0  0
  -10.8450  -23.1511   32.6537 C   0  0  0  0  0  0  0  0  0  0  0  0
  -10.2747  -24.1949   31.9218 C   0  0  0  0  0  0  0  0  0  0  0  0
  -10.1312  -24.0770   30.5437 C   0  0  0  0  0  0  0  0  0  0  0  0
   -9.6174  -25.1394   29.8642 O   0  0  0  0  0  0  0  0  0  0  0  0
   -8.8286  -24.8030   28.7102 C   0  0  0  0  0  0  0  0  0  0  0  0
    0.9661  -22.3585   25.2142 N   0  0  0  0  0  0  0  0  0  0  0  0
    2.5431  -21.5621   25.7083 C   0  0  0  0  0  0  0  0  0  0  0  0
    3.8725  -22.1657   25.1791 C   0  0  0  0  0  0  0  0  0  0  0  0
    5.0166  -21.6438   25.6052 N   0  0  0  0  0  0  0  0  0  0  0  0
    4.5901  -20.6037   26.2896 N   0  0  0  0  0  0  0  0  0  0  0  0
    3.2259  -20.5938   26.4353 C   0  0  0  0  0  0  0  0  0  0  0  0
   -2.0970  -24.0378   26.2991 H   0  0  0  0  0  0  0  0  0  0  0  0
   -1.4754  -24.5119   24.7147 H   0  0  0  0  0  0  0  0  0  0  0  0
   -3.7721  -24.6212   24.0416 H   0  0  0  0  0  0  0  0  0  0  0  0
   -3.9535  -23.2944   25.5181 H   0  0  0  0  0  0  0  0  0  0  0  0
   -5.4569  -22.2921   23.8826 H   0  0  0  0  0  0  0  0  0  0  0  0
   -5.9581  -23.8329   23.7640 H   0  0  0  0  0  0  0  0  0  0  0  0
   -7.4529  -22.7668   24.5858 H   0  0  0  0  0  0  0  0  0  0  0  0
   -9.3153  -23.2060   25.9036 H   0  0  0  0  0  0  0  0  0  0  0  0
   -8.1301  -22.1754   27.1774 H   0  0  0  0  0  0  0  0  0  0  0  0
  -10.4306  -21.7882   28.0228 H   0  0  0  0  0  0  0  0  0  0  0  0
  -11.4476  -20.9705   30.1231 H   0  0  0  0  0  0  0  0  0  0  0  0
  -11.7549  -21.2022   32.5699 H   0  0  0  0  0  0  0  0  0  0  0  0
  -10.9288  -23.2125   33.7358 H   0  0  0  0  0  0  0  0  0  0  0  0
   -9.9065  -25.0867   32.4190 H   0  0  0  0  0  0  0  0  0  0  0  0
   -8.9689  -25.6320   28.0116 H   0  0  0  0  0  0  0  0  0  0  0  0
   -7.7980  -24.8108   29.0597 H   0  0  0  0  0  0  0  0  0  0  0  0
    0.9836  -22.9482   24.3795 H   0  0  0  0  0  0  0  0  0  0  0  0
    3.9608  -22.9763   24.4699 H   0  0  0  0  0  0  0  0  0  0  0  0
    5.2835  -19.9556   26.6579 H   0  0  0  0  0  0  0  0  0  0  0  0
    2.8163  -19.8666   27.0876 H   0  0  0  0  0  0  0  0  0  0  0  0
  1  2  2  0
  2  3  1  0
  3  4  1  0
  4  5  1  0
  5  6  1  0
  6  7  1  0
  7  8  1  0
  8  9  2  0
  9 10  1  0
 10 11  2  0
 11 12  1  0
 12 13  2  0
 13 14  1  0
 14 15  2  0
 15 16  1  0
 16 17  1  0
  2 18  1  0
 18 19  1  0
 19 20  1  0
 20 21  2  0
 21 22  1  0
 22 23  1  0
 17  8  1  0
 23 19  2  0
 15 10  1  0
  3 24  1  0
  3 25  1  0
  4 26  1  0
  4 27  1  0
  5 28  1  0
  5 29  1  0
  6 30  1  0
  7 31  1  0
  7 32  1  0
  9 33  1  0
 11 34  1  0
 12 35  1  0
 13 36  1  0
 14 37  1  0
 17 38  1  0
 17 39  1  0
 18 40  1  0
 20 41  1  0
 22 42  1  0
 23 43  1  0
M  END
>  <Energy>  (197) 
609.52453263422342

>  <compound_id>  (197) 
27397

>  <target_id>  (197) 
1

>  <reference_id>  (197) 
96

>  <inspiration_ids>  (197) 
[89, 96]

>  <energy_score>  (197) 
537.1534243977559

>  <distance_score>  (197) 
3.4649087631720565

>  <path>  (197) 
/opt/xchem-fragalysis-2/maxwin/BulkDock/SCRATCH/511020/C27397-P96/C27397-P96.minimised.mol

>  <scratch_subdir>  (197) 
/opt/xchem-fragalysis-2/maxwin/BulkDock/SCRATCH/511020/C27397-P96

>  <fragmenstein_runtime>  (197) 
21.525404691696167

>  <fragmenstein_outcome>  (197) 
too moved

>  <fragmenstein_mode>  (197) 
expansion

>  <fragmenstein_error>  (197) 


$$$$
C27398-P96
     RDKit          3D

 36 38  0  0  0  0  0  0  0  0999 V2000
    8.1130  -26.8878   24.3320 C   0  0  0  0  0  0  0  0  0  0  0  0
    6.7794  -26.4279   24.8915 C   0  0  0  0  0  0  0  0  0  0  0  0
    6.4274  -27.2623   26.0040 O   0  0  0  0  0  0  0  0  0  0  0  0
    6.2614  -26.5417   27.1512 C   0  0  0  0  0  0  0  0  0  0  0  0
    7.2645  -25.8112   27.7146 C   0  0  0  0  0  0  0  0  0  0  0  0
    6.8714  -24.9225   28.6817 C   0  0  0  0  0  0  0  0  0  0  0  0
    5.5517  -24.9285   29.1443 C   0  0  0  0  0  0  0  0  0  0  0  0
    4.5661  -25.7953   28.8231 C   0  0  0  0  0  0  0  0  0  0  0  0
    4.9741  -26.4993   27.7128 C   0  0  0  0  0  0  0  0  0  0  0  0
    3.1951  -25.5966   29.5065 C   0  0  0  0  0  0  0  0  0  0  0  0
    2.8162  -24.3205   29.8340 C   0  0  0  0  0  0  0  0  0  0  0  0
    1.4247  -23.6792   30.0891 C   0  0  0  0  0  0  0  0  0  0  0  0
    0.8686  -24.2787   30.9588 O   0  0  0  0  0  0  0  0  0  0  0  0
    0.8232  -22.3162   29.0109 N   0  0  0  0  0  0  0  0  0  0  0  0
   -0.9047  -21.4996   28.7901 C   0  0  0  0  0  0  0  0  0  0  0  0
   -1.6115  -21.9932   27.4325 C   0  0  0  0  0  0  0  0  0  0  0  0
   -2.8463  -22.7748   27.5671 N   0  0  0  0  0  0  0  0  0  0  0  0
   -3.5456  -22.0679   28.4085 N   0  0  0  0  0  0  0  0  0  0  0  0
   -2.7498  -21.6821   29.4758 C   0  0  0  0  0  0  0  0  0  0  0  0
    3.9221  -23.5426   29.8671 C   0  0  0  0  0  0  0  0  0  0  0  0
    5.2118  -23.9987   30.0279 O   0  0  0  0  0  0  0  0  0  0  0  0
    8.9063  -26.7807   25.0785 H   0  0  0  0  0  0  0  0  0  0  0  0
    8.0721  -27.9477   24.0598 H   0  0  0  0  0  0  0  0  0  0  0  0
    8.3839  -26.3064   23.4462 H   0  0  0  0  0  0  0  0  0  0  0  0
    6.0031  -26.5622   24.1302 H   0  0  0  0  0  0  0  0  0  0  0  0
    6.8133  -25.3573   25.1316 H   0  0  0  0  0  0  0  0  0  0  0  0
    8.2793  -25.8452   27.3467 H   0  0  0  0  0  0  0  0  0  0  0  0
    7.5644  -24.2069   29.1078 H   0  0  0  0  0  0  0  0  0  0  0  0
    4.2315  -26.8266   27.0258 H   0  0  0  0  0  0  0  0  0  0  0  0
    2.4814  -26.3996   29.5052 H   0  0  0  0  0  0  0  0  0  0  0  0
    1.4860  -22.0870   28.3279 H   0  0  0  0  0  0  0  0  0  0  0  0
   -1.1072  -22.1824   26.4776 H   0  0  0  0  0  0  0  0  0  0  0  0
   -4.4700  -21.7919   28.0897 H   0  0  0  0  0  0  0  0  0  0  0  0
   -3.1662  -21.1420   30.3410 H   0  0  0  0  0  0  0  0  0  0  0  0
    3.6829  -23.0248   30.7892 H   0  0  0  0  0  0  0  0  0  0  0  0
    3.8433  -23.1974   28.8272 H   0  0  0  0  0  0  0  0  0  0  0  0
  1  2  1  0
  2  3  1  0
  3  4  1  0
  4  5  2  0
  5  6  1  0
  6  7  2  0
  7  8  1  0
  8  9  2  0
  8 10  1  0
 10 11  2  0
 11 12  1  0
 12 13  2  0
 12 14  1  0
 14 15  1  0
 15 16  1  0
 16 17  2  0
 17 18  1  0
 18 19  1  0
 11 20  1  0
 20 21  1  0
  9  4  1  0
 19 15  2  0
 21  7  1  0
  1 22  1  0
  1 23  1  0
  1 24  1  0
  2 25  1  0
  2 26  1  0
  5 27  1  0
  6 28  1  0
  9 29  1  0
 10 30  1  0
 14 31  1  0
 16 32  1  0
 18 33  1  0
 19 34  1  0
 20 35  1  0
 20 36  1  0
M  END
>  <Energy>  (198) 
461.86991760171765

>  <compound_id>  (198) 
27398

>  <target_id>  (198) 
1

>  <reference_id>  (198) 
96

>  <inspiration_ids>  (198) 
[89, 96]

>  <energy_score>  (198) 
417.8167679160782

>  <distance_score>  (198) 
6.797913360333056

>  <path>  (198) 
/opt/xchem-fragalysis-2/maxwin/BulkDock/SCRATCH/511020/C27398-P96/C27398-P96.minimised.mol

>  <scratch_subdir>  (198) 
/opt/xchem-fragalysis-2/maxwin/BulkDock/SCRATCH/511020/C27398-P96

>  <fragmenstein_runtime>  (198) 
14.428094625473022

>  <fragmenstein_outcome>  (198) 
too moved

>  <fragmenstein_mode>  (198) 
expansion

>  <fragmenstein_error>  (198) 


$$$$
C27399-P96
     RDKit          3D

 42 44  0  0  0  0  0  0  0  0999 V2000
    5.4361  -25.1650   28.9783 C   0  0  0  0  0  0  0  0  0  0  0  0
    4.0493  -25.3424   29.5909 C   0  0  0  0  0  0  0  0  0  0  0  0
    3.2157  -24.3333   30.1710 O   0  0  0  0  0  0  0  0  0  0  0  0
    3.1012  -23.1314   29.5430 C   0  0  0  0  0  0  0  0  0  0  0  0
    4.1172  -22.7743   28.0527 C   0  0  0  0  0  0  0  0  0  0  0  0
    4.7419  -21.0403   27.7367 C   0  0  0  0  0  0  0  0  0  0  0  0
    4.6239  -19.5454   28.7700 C   0  0  0  0  0  0  0  0  0  0  0  0
    3.2184  -19.6839   29.7670 C   0  0  0  0  0  0  0  0  0  0  0  0
    2.4547  -21.6740   30.5451 C   0  0  0  0  0  0  0  0  0  0  0  0
    2.0724  -18.4565   29.1376 C   0  0  0  0  0  0  0  0  0  0  0  0
    0.8291  -17.8354   29.4197 C   0  0  0  0  0  0  0  0  0  0  0  0
   -0.7012  -19.1700   28.9378 C   0  0  0  0  0  0  0  0  0  0  0  0
   -0.4331  -19.6791   27.9299 O   0  0  0  0  0  0  0  0  0  0  0  0
   -2.3431  -19.9824   29.7280 N   0  0  0  0  0  0  0  0  0  0  0  0
   -3.5020  -21.6546   29.1253 C   0  0  0  0  0  0  0  0  0  0  0  0
   -3.0257  -22.4502   27.7764 C   0  0  0  0  0  0  0  0  0  0  0  0
   -5.3945  -22.3271   28.7149 C   0  0  0  0  0  0  0  0  0  0  0  0
   -6.4120  -21.4379   27.7689 C   0  0  0  0  0  0  0  0  0  0  0  0
   -7.7564  -21.6128   28.0138 N   0  0  0  0  0  0  0  0  0  0  0  0
   -8.1310  -22.6838   28.8711 N   0  0  0  0  0  0  0  0  0  0  0  0
   -6.8091  -23.5005   29.2530 C   0  0  0  0  0  0  0  0  0  0  0  0
    2.5118  -17.7514   30.4369 C   0  0  0  0  0  0  0  0  0  0  0  0
    4.1994  -18.6634   30.3025 O   0  0  0  0  0  0  0  0  0  0  0  0
    6.0814  -25.9988   29.2821 H   0  0  0  0  0  0  0  0  0  0  0  0
    5.9321  -24.2342   29.2428 H   0  0  0  0  0  0  0  0  0  0  0  0
    5.4097  -25.2653   27.8929 H   0  0  0  0  0  0  0  0  0  0  0  0
    3.4392  -25.9386   28.9187 H   0  0  0  0  0  0  0  0  0  0  0  0
    4.2824  -25.9523   30.4576 H   0  0  0  0  0  0  0  0  0  0  0  0
    4.5356  -23.5246   27.4113 H   0  0  0  0  0  0  0  0  0  0  0  0
    5.3949  -20.9500   26.8605 H   0  0  0  0  0  0  0  0  0  0  0  0
    1.8042  -21.9455   31.3968 H   0  0  0  0  0  0  0  0  0  0  0  0
    2.4300  -19.1308   28.3224 H   0  0  0  0  0  0  0  0  0  0  0  0
   -2.5724  -19.4926   30.4931 H   0  0  0  0  0  0  0  0  0  0  0  0
   -3.9397  -21.1115   28.1585 H   0  0  0  0  0  0  0  0  0  0  0  0
   -2.8321  -23.5287   27.7829 H   0  0  0  0  0  0  0  0  0  0  0  0
   -3.8073  -22.3085   27.0312 H   0  0  0  0  0  0  0  0  0  0  0  0
   -2.0268  -22.0392   27.4985 H   0  0  0  0  0  0  0  0  0  0  0  0
   -6.0746  -20.6400   27.1220 H   0  0  0  0  0  0  0  0  0  0  0  0
   -9.0826  -23.0365   28.9048 H   0  0  0  0  0  0  0  0  0  0  0  0
   -7.0122  -24.5768   29.1957 H   0  0  0  0  0  0  0  0  0  0  0  0
    2.4775  -17.9479   31.5125 H   0  0  0  0  0  0  0  0  0  0  0  0
    2.8512  -16.7557   30.2854 H   0  0  0  0  0  0  0  0  0  0  0  0
  1  2  1  0
  2  3  1  0
  3  4  1  0
  4  5  2  0
  5  6  1  0
  6  7  2  0
  7  8  1  0
  8  9  2  0
  8 10  1  0
 10 11  2  0
 11 12  1  0
 12 13  2  0
 12 14  1  0
 14 15  1  0
 15 16  1  0
 15 17  1  0
 17 18  1  0
 18 19  2  0
 19 20  1  0
 20 21  1  0
 11 22  1  0
 22 23  1  0
  9  4  1  0
 21 17  2  0
 23  7  1  0
  1 24  1  0
  1 25  1  0
  1 26  1  0
  2 27  1  0
  2 28  1  0
  5 29  1  0
  6 30  1  0
  9 31  1  0
 10 32  1  0
 14 33  1  0
 15 34  1  0
 16 35  1  0
 16 36  1  0
 16 37  1  0
 18 38  1  0
 20 39  1  0
 21 40  1  0
 22 41  1  0
 22 42  1  0
M  END
>  <Energy>  (199) 
1952.5046024154567

>  <compound_id>  (199) 
27399

>  <target_id>  (199) 
1

>  <reference_id>  (199) 
96

>  <inspiration_ids>  (199) 
[89, 96]

>  <energy_score>  (199) 
1922.507596831886

>  <distance_score>  (199) 
3.6009350367062765

>  <path>  (199) 
/opt/xchem-fragalysis-2/maxwin/BulkDock/SCRATCH/511020/C27399-P96/C27399-P96.minimised.mol

>  <scratch_subdir>  (199) 
/opt/xchem-fragalysis-2/maxwin/BulkDock/SCRATCH/511020/C27399-P96

>  <fragmenstein_runtime>  (199) 
22.935985326766968

>  <fragmenstein_outcome>  (199) 
too moved

>  <fragmenstein_mode>  (199) 
expansion

>  <fragmenstein_error>  (199) 


$$$$
C27400-P96
     RDKit          3D

 39 41  0  0  0  0  0  0  0  0999 V2000
   -9.6537  -21.3747   28.5735 O   0  0  0  0  0  0  0  0  0  0  0  0
   -8.7336  -22.4232   28.1692 S   0  0  0  0  0  0  0  0  0  0  0  0
   -9.1581  -23.1474   26.9900 O   0  0  0  0  0  0  0  0  0  0  0  0
   -6.7990  -21.4412   27.7950 N   0  0  0  0  0  0  0  0  0  0  0  0
   -4.9232  -21.6327   27.2627 C   0  0  0  0  0  0  0  0  0  0  0  0
   -2.9885  -22.0605   27.7614 C   0  0  0  0  0  0  0  0  0  0  0  0
   -0.9886  -21.2235   27.7579 C   0  0  0  0  0  0  0  0  0  0  0  0
    0.9366  -20.8264   27.0909 C   0  0  0  0  0  0  0  0  0  0  0  0
    1.8954  -21.7103   26.5636 C   0  0  0  0  0  0  0  0  0  0  0  0
    3.1353  -21.5771   25.9778 N   0  0  0  0  0  0  0  0  0  0  0  0
    3.4271  -20.4135   26.4189 N   0  0  0  0  0  0  0  0  0  0  0  0
    2.2118  -20.0549   27.1435 C   0  0  0  0  0  0  0  0  0  0  0  0
   -8.8811  -23.6662   29.4020 C   0  0  0  0  0  0  0  0  0  0  0  0
   -8.5285  -23.4077   30.6428 C   0  0  0  0  0  0  0  0  0  0  0  0
   -9.0263  -24.1048   31.7575 C   0  0  0  0  0  0  0  0  0  0  0  0
   -8.7106  -23.5830   33.0074 C   0  0  0  0  0  0  0  0  0  0  0  0
   -8.6391  -24.4471   34.0509 C   0  0  0  0  0  0  0  0  0  0  0  0
   -8.8738  -25.7808   33.7993 C   0  0  0  0  0  0  0  0  0  0  0  0
   -9.4972  -26.1814   32.6101 C   0  0  0  0  0  0  0  0  0  0  0  0
   -9.5672  -25.3334   31.5362 C   0  0  0  0  0  0  0  0  0  0  0  0
  -10.0236  -25.7265   30.3133 O   0  0  0  0  0  0  0  0  0  0  0  0
   -9.8609  -24.7906   29.1912 C   0  0  0  0  0  0  0  0  0  0  0  0
   -7.0769  -20.4746   27.6055 H   0  0  0  0  0  0  0  0  0  0  0  0
   -4.8468  -20.5655   27.1400 H   0  0  0  0  0  0  0  0  0  0  0  0
   -5.0485  -21.9604   28.2799 H   0  0  0  0  0  0  0  0  0  0  0  0
   -3.2886  -22.0515   28.8429 H   0  0  0  0  0  0  0  0  0  0  0  0
   -2.8361  -23.1313   27.5102 H   0  0  0  0  0  0  0  0  0  0  0  0
   -1.1722  -21.8278   26.8861 H   0  0  0  0  0  0  0  0  0  0  0  0
   -0.5744  -21.5177   28.6913 H   0  0  0  0  0  0  0  0  0  0  0  0
    1.9961  -22.5564   27.2320 H   0  0  0  0  0  0  0  0  0  0  0  0
    4.3753  -20.0320   26.3975 H   0  0  0  0  0  0  0  0  0  0  0  0
    2.5859  -19.4464   27.9213 H   0  0  0  0  0  0  0  0  0  0  0  0
   -7.8737  -22.6814   30.9971 H   0  0  0  0  0  0  0  0  0  0  0  0
   -8.3949  -22.5539   33.1359 H   0  0  0  0  0  0  0  0  0  0  0  0
   -8.3618  -24.0699   35.0162 H   0  0  0  0  0  0  0  0  0  0  0  0
   -8.6795  -26.5143   34.5650 H   0  0  0  0  0  0  0  0  0  0  0  0
   -9.9054  -27.1798   32.5615 H   0  0  0  0  0  0  0  0  0  0  0  0
  -10.8568  -24.3945   28.9621 H   0  0  0  0  0  0  0  0  0  0  0  0
   -9.5396  -25.4045   28.3439 H   0  0  0  0  0  0  0  0  0  0  0  0
  1  2  2  0
  2  3  2  0
  2  4  1  0
  4  5  1  0
  5  6  1  0
  6  7  1  0
  7  8  1  0
  8  9  1  0
  9 10  2  0
 10 11  1  0
 11 12  1  0
  2 13  1  0
 13 14  2  0
 14 15  1  0
 15 16  2  0
 16 17  1  0
 17 18  2  0
 18 19  1  0
 19 20  2  0
 20 21  1  0
 21 22  1  0
 12  8  2  0
 22 13  1  0
 20 15  1  0
  4 23  1  0
  5 24  1  0
  5 25  1  0
  6 26  1  0
  6 27  1  0
  7 28  1  0
  7 29  1  0
  9 30  1  0
 11 31  1  0
 12 32  1  0
 14 33  1  0
 16 34  1  0
 17 35  1  0
 18 36  1  0
 19 37  1  0
 22 38  1  0
 22 39  1  0
M  END
>  <Energy>  (200) 
659.92681300629192

>  <compound_id>  (200) 
27400

>  <target_id>  (200) 
1

>  <reference_id>  (200) 
96

>  <inspiration_ids>  (200) 
[89, 96]

>  <energy_score>  (200) 
692.6216483821978

>  <distance_score>  (200) 
3.581739708615921

>  <path>  (200) 
/opt/xchem-fragalysis-2/maxwin/BulkDock/SCRATCH/511020/C27400-P96/C27400-P96.minimised.mol

>  <scratch_subdir>  (200) 
/opt/xchem-fragalysis-2/maxwin/BulkDock/SCRATCH/511020/C27400-P96

>  <fragmenstein_runtime>  (200) 
25.44757103919983

>  <fragmenstein_outcome>  (200) 
too moved

>  <fragmenstein_mode>  (200) 
expansion

>  <fragmenstein_error>  (200) 


$$$$
C27401-P96
     RDKit          3D

 39 41  0  0  0  0  0  0  0  0999 V2000
    5.5526  -22.4682   24.3249 C   0  0  0  0  0  0  0  0  0  0  0  0
    6.0023  -21.4766   25.3850 C   0  0  0  0  0  0  0  0  0  0  0  0
    4.9485  -20.4894   25.8938 C   0  0  0  0  0  0  0  0  0  0  0  0
    5.2431  -19.9346   27.1974 O   0  0  0  0  0  0  0  0  0  0  0  0
    5.3240  -20.8173   28.2042 C   0  0  0  0  0  0  0  0  0  0  0  0
    4.4631  -22.5120   27.9284 C   0  0  0  0  0  0  0  0  0  0  0  0
    3.4253  -23.3293   29.3154 C   0  0  0  0  0  0  0  0  0  0  0  0
    3.1138  -22.9338   31.0484 C   0  0  0  0  0  0  0  0  0  0  0  0
    4.8513  -22.1621   31.2456 C   0  0  0  0  0  0  0  0  0  0  0  0
    5.5499  -20.4664   30.1311 C   0  0  0  0  0  0  0  0  0  0  0  0
    3.1737  -22.3606   32.0073 O   0  0  0  0  0  0  0  0  0  0  0  0
    1.6067  -23.6242   32.1768 C   0  0  0  0  0  0  0  0  0  0  0  0
   -0.2681  -23.1889   33.0827 C   0  0  0  0  0  0  0  0  0  0  0  0
   -2.1815  -22.7765   33.2923 C   0  0  0  0  0  0  0  0  0  0  0  0
   -2.3687  -21.6602   32.9160 O   0  0  0  0  0  0  0  0  0  0  0  0
   -3.6879  -23.9694   33.7166 N   0  0  0  0  0  0  0  0  0  0  0  0
   -5.7417  -23.7883   33.4432 C   0  0  0  0  0  0  0  0  0  0  0  0
   -6.8148  -25.0883   33.5915 C   0  0  0  0  0  0  0  0  0  0  0  0
   -8.1144  -24.7912   33.5104 N   0  0  0  0  0  0  0  0  0  0  0  0
   -8.0504  -23.4935   33.2232 N   0  0  0  0  0  0  0  0  0  0  0  0
   -6.8037  -23.1995   32.6572 C   0  0  0  0  0  0  0  0  0  0  0  0
    1.3669  -22.5437   32.2725 C   0  0  0  0  0  0  0  0  0  0  0  0
    6.1850  -23.3623   24.3651 H   0  0  0  0  0  0  0  0  0  0  0  0
    4.5201  -22.7832   24.4762 H   0  0  0  0  0  0  0  0  0  0  0  0
    5.6588  -22.0732   23.3153 H   0  0  0  0  0  0  0  0  0  0  0  0
    6.8513  -20.9030   25.0032 H   0  0  0  0  0  0  0  0  0  0  0  0
    6.3677  -22.0765   26.2180 H   0  0  0  0  0  0  0  0  0  0  0  0
    3.9371  -20.9043   25.8883 H   0  0  0  0  0  0  0  0  0  0  0  0
    4.9193  -19.6318   25.2178 H   0  0  0  0  0  0  0  0  0  0  0  0
    4.1852  -22.7856   26.9140 H   0  0  0  0  0  0  0  0  0  0  0  0
    2.3745  -23.4155   29.0562 H   0  0  0  0  0  0  0  0  0  0  0  0
    5.2010  -19.4015   30.3074 H   0  0  0  0  0  0  0  0  0  0  0  0
    1.4807  -24.1807   31.1483 H   0  0  0  0  0  0  0  0  0  0  0  0
    2.1821  -24.4522   32.6890 H   0  0  0  0  0  0  0  0  0  0  0  0
   -3.3343  -24.8360   34.0939 H   0  0  0  0  0  0  0  0  0  0  0  0
   -6.5036  -26.1072   33.8068 H   0  0  0  0  0  0  0  0  0  0  0  0
   -8.9239  -23.0206   33.0244 H   0  0  0  0  0  0  0  0  0  0  0  0
   -6.9342  -23.2708   31.5954 H   0  0  0  0  0  0  0  0  0  0  0  0
    1.3369  -21.4498   32.2943 H   0  0  0  0  0  0  0  0  0  0  0  0
  1  2  1  0
  2  3  1  0
  3  4  1  0
  4  5  1  0
  5  6  2  0
  6  7  1  0
  7  8  2  0
  8  9  1  0
  9 10  2  0
  9 11  1  0
 11 12  1  0
 12 13  1  0
 13 14  1  0
 14 15  2  0
 14 16  1  0
 16 17  1  0
 17 18  1  0
 18 19  2  0
 19 20  1  0
 20 21  1  0
 13 22  2  0
 10  5  1  0
 21 17  2  0
 22  8  1  0
  1 23  1  0
  1 24  1  0
  1 25  1  0
  2 26  1  0
  2 27  1  0
  3 28  1  0
  3 29  1  0
  6 30  1  0
  7 31  1  0
 10 32  1  0
 12 33  1  0
 12 34  1  0
 16 35  1  0
 18 36  1  0
 20 37  1  0
 21 38  1  0
 22 39  1  0
M  END
>  <Energy>  (201) 
2263.8626572188059

>  <compound_id>  (201) 
27401

>  <target_id>  (201) 
1

>  <reference_id>  (201) 
96

>  <inspiration_ids>  (201) 
[89, 96]

>  <energy_score>  (201) 
2209.865015459211

>  <distance_score>  (201) 
4.646371441237279

>  <path>  (201) 
/opt/xchem-fragalysis-2/maxwin/BulkDock/SCRATCH/511020/C27401-P96/C27401-P96.minimised.mol

>  <scratch_subdir>  (201) 
/opt/xchem-fragalysis-2/maxwin/BulkDock/SCRATCH/511020/C27401-P96

>  <fragmenstein_runtime>  (201) 
19.089927911758423

>  <fragmenstein_outcome>  (201) 
too moved

>  <fragmenstein_mode>  (201) 
expansion

>  <fragmenstein_error>  (201) 


$$$$
C27402-P96
     RDKit          3D

 35 37  0  0  0  0  0  0  0  0999 V2000
   -7.9856  -23.1116   29.1790 O   0  0  0  0  0  0  0  0  0  0  0  0
   -8.1037  -22.1129   28.4393 C   0  0  0  0  0  0  0  0  0  0  0  0
   -6.8363  -21.1739   27.6129 N   0  0  0  0  0  0  0  0  0  0  0  0
   -4.9648  -21.4487   27.4833 C   0  0  0  0  0  0  0  0  0  0  0  0
   -3.0608  -22.0234   27.9224 C   0  0  0  0  0  0  0  0  0  0  0  0
   -1.0876  -21.2533   28.1477 C   0  0  0  0  0  0  0  0  0  0  0  0
   -1.0003  -19.5504   29.0086 C   0  0  0  0  0  0  0  0  0  0  0  0
   -0.4375  -18.4945   28.5240 N   0  0  0  0  0  0  0  0  0  0  0  0
   -0.3222  -19.1587   27.4681 N   0  0  0  0  0  0  0  0  0  0  0  0
   -0.1111  -20.5492   27.4766 C   0  0  0  0  0  0  0  0  0  0  0  0
   -9.6505  -21.8107   28.1924 C   0  0  0  0  0  0  0  0  0  0  0  0
  -10.4207  -21.1051   29.0450 C   0  0  0  0  0  0  0  0  0  0  0  0
  -11.3106  -21.9176   29.8989 C   0  0  0  0  0  0  0  0  0  0  0  0
  -11.7818  -21.3993   31.1119 C   0  0  0  0  0  0  0  0  0  0  0  0
  -12.4912  -22.2053   32.0051 C   0  0  0  0  0  0  0  0  0  0  0  0
  -12.7273  -23.5418   31.6948 C   0  0  0  0  0  0  0  0  0  0  0  0
  -12.2374  -24.0770   30.5068 C   0  0  0  0  0  0  0  0  0  0  0  0
  -11.5294  -23.2690   29.6180 C   0  0  0  0  0  0  0  0  0  0  0  0
  -11.0197  -23.8955   28.5176 O   0  0  0  0  0  0  0  0  0  0  0  0
  -10.3398  -23.0347   27.5974 C   0  0  0  0  0  0  0  0  0  0  0  0
   -7.2439  -20.3790   27.1588 H   0  0  0  0  0  0  0  0  0  0  0  0
   -5.1090  -21.9107   26.5193 H   0  0  0  0  0  0  0  0  0  0  0  0
   -5.2413  -22.0687   28.3084 H   0  0  0  0  0  0  0  0  0  0  0  0
   -3.3389  -22.0944   28.9992 H   0  0  0  0  0  0  0  0  0  0  0  0
   -2.8891  -23.0486   27.5486 H   0  0  0  0  0  0  0  0  0  0  0  0
   -1.7918  -19.2003   29.6408 H   0  0  0  0  0  0  0  0  0  0  0  0
   -0.8772  -18.7316   26.7684 H   0  0  0  0  0  0  0  0  0  0  0  0
    0.8064  -20.8545   26.9775 H   0  0  0  0  0  0  0  0  0  0  0  0
  -10.1142  -20.1684   29.4902 H   0  0  0  0  0  0  0  0  0  0  0  0
  -11.5544  -20.3764   31.3964 H   0  0  0  0  0  0  0  0  0  0  0  0
  -12.8391  -21.7941   32.9496 H   0  0  0  0  0  0  0  0  0  0  0  0
  -13.2821  -24.1722   32.3796 H   0  0  0  0  0  0  0  0  0  0  0  0
  -12.3867  -25.1274   30.2746 H   0  0  0  0  0  0  0  0  0  0  0  0
  -11.0688  -22.7115   26.8433 H   0  0  0  0  0  0  0  0  0  0  0  0
   -9.6268  -23.6584   27.0668 H   0  0  0  0  0  0  0  0  0  0  0  0
  1  2  2  0
  2  3  1  0
  3  4  1  0
  4  5  1  0
  5  6  1  0
  6  7  1  0
  7  8  2  0
  8  9  1  0
  9 10  1  0
  2 11  1  0
 11 12  2  0
 12 13  1  0
 13 14  2  0
 14 15  1  0
 15 16  2  0
 16 17  1  0
 17 18  2  0
 18 19  1  0
 19 20  1  0
 10  6  2  0
 20 11  1  0
 18 13  1  0
  3 21  1  0
  4 22  1  0
  4 23  1  0
  5 24  1  0
  5 25  1  0
  7 26  1  0
  9 27  1  0
 10 28  1  0
 12 29  1  0
 14 30  1  0
 15 31  1  0
 16 32  1  0
 17 33  1  0
 20 34  1  0
 20 35  1  0
M  END
>  <Energy>  (202) 
579.02652294924451

>  <compound_id>  (202) 
27402

>  <target_id>  (202) 
1

>  <reference_id>  (202) 
96

>  <inspiration_ids>  (202) 
[89, 96]

>  <energy_score>  (202) 
541.2675520215496

>  <distance_score>  (202) 
4.5870739956391215

>  <path>  (202) 
/opt/xchem-fragalysis-2/maxwin/BulkDock/SCRATCH/511020/C27402-P96/C27402-P96.minimised.mol

>  <scratch_subdir>  (202) 
/opt/xchem-fragalysis-2/maxwin/BulkDock/SCRATCH/511020/C27402-P96

>  <fragmenstein_runtime>  (202) 
43.330824851989746

>  <fragmenstein_outcome>  (202) 
too moved

>  <fragmenstein_mode>  (202) 
expansion

>  <fragmenstein_error>  (202) 


$$$$
C27399-P96
     RDKit          3D

 42 44  0  0  0  0  0  0  0  0999 V2000
    5.4361  -25.1650   28.9783 C   0  0  0  0  0  0  0  0  0  0  0  0
    4.0493  -25.3424   29.5909 C   0  0  0  0  0  0  0  0  0  0  0  0
    3.2157  -24.3333   30.1710 O   0  0  0  0  0  0  0  0  0  0  0  0
    3.1012  -23.1314   29.5430 C   0  0  0  0  0  0  0  0  0  0  0  0
    4.1172  -22.7743   28.0527 C   0  0  0  0  0  0  0  0  0  0  0  0
    4.7419  -21.0403   27.7367 C   0  0  0  0  0  0  0  0  0  0  0  0
    4.6239  -19.5454   28.7700 C   0  0  0  0  0  0  0  0  0  0  0  0
    3.2184  -19.6839   29.7670 C   0  0  0  0  0  0  0  0  0  0  0  0
    2.4547  -21.6740   30.5451 C   0  0  0  0  0  0  0  0  0  0  0  0
    2.0724  -18.4565   29.1376 C   0  0  0  0  0  0  0  0  0  0  0  0
    0.8291  -17.8354   29.4197 C   0  0  0  0  0  0  0  0  0  0  0  0
   -0.7012  -19.1700   28.9378 C   0  0  0  0  0  0  0  0  0  0  0  0
   -0.4331  -19.6791   27.9299 O   0  0  0  0  0  0  0  0  0  0  0  0
   -2.3431  -19.9824   29.7280 N   0  0  0  0  0  0  0  0  0  0  0  0
   -3.5020  -21.6546   29.1253 C   0  0  0  0  0  0  0  0  0  0  0  0
   -3.0257  -22.4502   27.7764 C   0  0  0  0  0  0  0  0  0  0  0  0
   -5.3945  -22.3271   28.7149 C   0  0  0  0  0  0  0  0  0  0  0  0
   -6.4120  -21.4379   27.7689 C   0  0  0  0  0  0  0  0  0  0  0  0
   -7.7564  -21.6128   28.0138 N   0  0  0  0  0  0  0  0  0  0  0  0
   -8.1310  -22.6838   28.8711 N   0  0  0  0  0  0  0  0  0  0  0  0
   -6.8091  -23.5005   29.2530 C   0  0  0  0  0  0  0  0  0  0  0  0
    2.5118  -17.7514   30.4369 C   0  0  0  0  0  0  0  0  0  0  0  0
    4.1994  -18.6634   30.3025 O   0  0  0  0  0  0  0  0  0  0  0  0
    6.0814  -25.9988   29.2821 H   0  0  0  0  0  0  0  0  0  0  0  0
    5.9321  -24.2342   29.2428 H   0  0  0  0  0  0  0  0  0  0  0  0
    5.4097  -25.2653   27.8929 H   0  0  0  0  0  0  0  0  0  0  0  0
    3.4392  -25.9386   28.9187 H   0  0  0  0  0  0  0  0  0  0  0  0
    4.2824  -25.9523   30.4576 H   0  0  0  0  0  0  0  0  0  0  0  0
    4.5356  -23.5246   27.4113 H   0  0  0  0  0  0  0  0  0  0  0  0
    5.3949  -20.9500   26.8605 H   0  0  0  0  0  0  0  0  0  0  0  0
    1.8042  -21.9455   31.3968 H   0  0  0  0  0  0  0  0  0  0  0  0
    2.4300  -19.1308   28.3224 H   0  0  0  0  0  0  0  0  0  0  0  0
   -2.5724  -19.4926   30.4931 H   0  0  0  0  0  0  0  0  0  0  0  0
   -3.9397  -21.1115   28.1585 H   0  0  0  0  0  0  0  0  0  0  0  0
   -2.8321  -23.5287   27.7829 H   0  0  0  0  0  0  0  0  0  0  0  0
   -3.8073  -22.3085   27.0312 H   0  0  0  0  0  0  0  0  0  0  0  0
   -2.0268  -22.0392   27.4985 H   0  0  0  0  0  0  0  0  0  0  0  0
   -6.0746  -20.6400   27.1220 H   0  0  0  0  0  0  0  0  0  0  0  0
   -9.0826  -23.0365   28.9048 H   0  0  0  0  0  0  0  0  0  0  0  0
   -7.0122  -24.5768   29.1957 H   0  0  0  0  0  0  0  0  0  0  0  0
    2.4775  -17.9479   31.5125 H   0  0  0  0  0  0  0  0  0  0  0  0
    2.8512  -16.7557   30.2854 H   0  0  0  0  0  0  0  0  0  0  0  0
  1  2  1  0
  2  3  1  0
  3  4  1  0
  4  5  2  0
  5  6  1  0
  6  7  2  0
  7  8  1  0
  8  9  2  0
  8 10  1  0
 10 11  2  0
 11 12  1  0
 12 13  2  0
 12 14  1  0
 14 15  1  0
 15 16  1  0
 15 17  1  0
 17 18  1  0
 18 19  2  0
 19 20  1  0
 20 21  1  0
 11 22  1  0
 22 23  1  0
  9  4  1  0
 21 17  2  0
 23  7  1  0
  1 24  1  0
  1 25  1  0
  1 26  1  0
  2 27  1  0
  2 28  1  0
  5 29  1  0
  6 30  1  0
  9 31  1  0
 10 32  1  0
 14 33  1  0
 15 34  1  0
 16 35  1  0
 16 36  1  0
 16 37  1  0
 18 38  1  0
 20 39  1  0
 21 40  1  0
 22 41  1  0
 22 42  1  0
M  END
>  <Energy>  (203) 
1952.5046024154567

>  <compound_id>  (203) 
27399

>  <target_id>  (203) 
1

>  <reference_id>  (203) 
96

>  <inspiration_ids>  (203) 
[89, 96]

>  <energy_score>  (203) 
1922.507596831886

>  <distance_score>  (203) 
3.6009350367062765

>  <path>  (203) 
/opt/xchem-fragalysis-2/maxwin/BulkDock/SCRATCH/511020/C27399-P96/C27399-P96.minimised.mol

>  <scratch_subdir>  (203) 
/opt/xchem-fragalysis-2/maxwin/BulkDock/SCRATCH/511020/C27399-P96

>  <fragmenstein_runtime>  (203) 
26.55696678161621

>  <fragmenstein_outcome>  (203) 
too moved

>  <fragmenstein_mode>  (203) 
expansion

>  <fragmenstein_error>  (203) 


$$$$
C27404-P96
     RDKit          3D

 35 37  0  0  0  0  0  0  0  0999 V2000
    0.6832  -22.0554   25.5345 O   0  0  0  0  0  0  0  0  0  0  0  0
    0.9396  -21.4001   26.4947 C   0  0  0  0  0  0  0  0  0  0  0  0
   -0.7189  -21.2344   27.7123 N   0  0  0  0  0  0  0  0  0  0  0  0
   -2.6545  -22.1207   27.6608 C   0  0  0  0  0  0  0  0  0  0  0  0
   -4.4452  -22.2620   28.8044 C   0  0  0  0  0  0  0  0  0  0  0  0
   -6.2440  -23.3689   28.9748 C   0  0  0  0  0  0  0  0  0  0  0  0
   -6.9497  -25.0025   28.9375 C   0  0  0  0  0  0  0  0  0  0  0  0
   -8.2333  -25.2327   29.1968 N   0  0  0  0  0  0  0  0  0  0  0  0
   -8.7155  -24.0741   29.5516 N   0  0  0  0  0  0  0  0  0  0  0  0
   -7.9170  -23.0450   29.2036 C   0  0  0  0  0  0  0  0  0  0  0  0
    2.8759  -20.9882   26.4705 C   0  0  0  0  0  0  0  0  0  0  0  0
    3.7751  -22.1424   26.6760 C   0  0  0  0  0  0  0  0  0  0  0  0
    5.2446  -22.3261   26.5794 C   0  0  0  0  0  0  0  0  0  0  0  0
    5.8575  -23.5336   26.8788 C   0  0  0  0  0  0  0  0  0  0  0  0
    6.6178  -24.1088   25.8717 C   0  0  0  0  0  0  0  0  0  0  0  0
    7.1890  -25.8995   26.0467 Br  0  0  0  0  0  0  0  0  0  0  0  0
    6.8136  -23.4202   24.6778 C   0  0  0  0  0  0  0  0  0  0  0  0
    6.4492  -22.0682   24.5979 C   0  0  0  0  0  0  0  0  0  0  0  0
    5.7803  -21.4941   25.6548 C   0  0  0  0  0  0  0  0  0  0  0  0
    5.2550  -20.2442   25.6786 O   0  0  0  0  0  0  0  0  0  0  0  0
    3.8797  -20.4484   25.3327 C   0  0  0  0  0  0  0  0  0  0  0  0
   -0.4571  -20.7659   28.5211 H   0  0  0  0  0  0  0  0  0  0  0  0
   -3.4317  -21.5733   27.1499 H   0  0  0  0  0  0  0  0  0  0  0  0
   -2.4973  -23.2050   27.3980 H   0  0  0  0  0  0  0  0  0  0  0  0
   -5.0120  -21.8311   27.9262 H   0  0  0  0  0  0  0  0  0  0  0  0
   -3.9775  -23.0453   29.2907 H   0  0  0  0  0  0  0  0  0  0  0  0
   -6.3161  -25.7985   28.5860 H   0  0  0  0  0  0  0  0  0  0  0  0
   -9.6990  -24.0291   29.7926 H   0  0  0  0  0  0  0  0  0  0  0  0
   -8.3854  -22.1533   28.7990 H   0  0  0  0  0  0  0  0  0  0  0  0
    3.4334  -23.0336   27.1901 H   0  0  0  0  0  0  0  0  0  0  0  0
    5.5128  -24.1416   27.7103 H   0  0  0  0  0  0  0  0  0  0  0  0
    7.3016  -23.8999   23.8355 H   0  0  0  0  0  0  0  0  0  0  0  0
    6.6478  -21.4876   23.7067 H   0  0  0  0  0  0  0  0  0  0  0  0
    3.7006  -19.5722   24.7569 H   0  0  0  0  0  0  0  0  0  0  0  0
    3.9238  -21.2268   24.5816 H   0  0  0  0  0  0  0  0  0  0  0  0
  1  2  2  0
  2  3  1  0
  3  4  1  0
  4  5  1  0
  5  6  1  0
  6  7  1  0
  7  8  2  0
  8  9  1  0
  9 10  1  0
  2 11  1  0
 11 12  2  0
 12 13  1  0
 13 14  2  0
 14 15  1  0
 15 16  1  0
 15 17  2  0
 17 18  1  0
 18 19  2  0
 19 20  1  0
 20 21  1  0
 10  6  2  0
 21 11  1  0
 19 13  1  0
  3 22  1  0
  4 23  1  0
  4 24  1  0
  5 25  1  0
  5 26  1  0
  7 27  1  0
  9 28  1  0
 10 29  1  0
 12 30  1  0
 14 31  1  0
 17 32  1  0
 18 33  1  0
 21 34  1  0
 21 35  1  0
M  END
>  <Energy>  (204) 
922.46148024248498

>  <compound_id>  (204) 
27404

>  <target_id>  (204) 
1

>  <reference_id>  (204) 
96

>  <inspiration_ids>  (204) 
[89, 96]

>  <energy_score>  (204) 
889.0798791246973

>  <distance_score>  (204) 
4.7199503078575225

>  <path>  (204) 
/opt/xchem-fragalysis-2/maxwin/BulkDock/SCRATCH/511020/C27404-P96/C27404-P96.minimised.mol

>  <scratch_subdir>  (204) 
/opt/xchem-fragalysis-2/maxwin/BulkDock/SCRATCH/511020/C27404-P96

>  <fragmenstein_runtime>  (204) 
21.864161729812622

>  <fragmenstein_outcome>  (204) 
too moved

>  <fragmenstein_mode>  (204) 
expansion

>  <fragmenstein_error>  (204) 


$$$$
C27396-P96
     RDKit          3D

 41 43  0  0  0  0  0  0  0  0999 V2000
   -7.9149  -24.3043   29.1220 O   0  0  0  0  0  0  0  0  0  0  0  0
   -8.4953  -23.2453   29.0582 C   0  0  0  0  0  0  0  0  0  0  0  0
   -8.1084  -21.9453   28.3674 N   0  0  0  0  0  0  0  0  0  0  0  0
   -6.6346  -21.4803   27.5186 C   0  0  0  0  0  0  0  0  0  0  0  0
   -4.7745  -21.5209   27.6400 C   0  0  0  0  0  0  0  0  0  0  0  0
   -2.8449  -22.0880   27.7825 C   0  0  0  0  0  0  0  0  0  0  0  0
   -0.8682  -21.1592   27.8621 C   0  0  0  0  0  0  0  0  0  0  0  0
    0.9958  -20.8350   27.0731 C   0  0  0  0  0  0  0  0  0  0  0  0
    2.3939  -20.0254   27.1239 C   0  0  0  0  0  0  0  0  0  0  0  0
    3.5504  -20.3197   26.4627 N   0  0  0  0  0  0  0  0  0  0  0  0
    3.1745  -21.4442   25.9348 N   0  0  0  0  0  0  0  0  0  0  0  0
    1.8921  -21.7133   26.5538 C   0  0  0  0  0  0  0  0  0  0  0  0
   -9.7352  -23.2493   29.9010 C   0  0  0  0  0  0  0  0  0  0  0  0
  -10.7106  -22.3324   29.9779 C   0  0  0  0  0  0  0  0  0  0  0  0
  -11.3540  -22.2536   31.3032 C   0  0  0  0  0  0  0  0  0  0  0  0
  -12.4608  -21.4499   31.5320 C   0  0  0  0  0  0  0  0  0  0  0  0
  -12.9527  -21.2616   32.8201 C   0  0  0  0  0  0  0  0  0  0  0  0
  -14.5247  -20.2545   33.1211 Br  0  0  0  0  0  0  0  0  0  0  0  0
  -12.2837  -21.8046   33.9019 C   0  0  0  0  0  0  0  0  0  0  0  0
  -11.1598  -22.5883   33.7022 C   0  0  0  0  0  0  0  0  0  0  0  0
  -10.7405  -22.8557   32.4119 C   0  0  0  0  0  0  0  0  0  0  0  0
   -9.6814  -23.7069   32.2958 O   0  0  0  0  0  0  0  0  0  0  0  0
   -9.6636  -24.3100   30.9973 C   0  0  0  0  0  0  0  0  0  0  0  0
   -8.8713  -21.2833   28.4488 H   0  0  0  0  0  0  0  0  0  0  0  0
   -6.8354  -21.8107   26.5046 H   0  0  0  0  0  0  0  0  0  0  0  0
   -6.8154  -20.4217   27.5880 H   0  0  0  0  0  0  0  0  0  0  0  0
   -4.8807  -21.9945   26.6706 H   0  0  0  0  0  0  0  0  0  0  0  0
   -5.0107  -22.1136   28.5171 H   0  0  0  0  0  0  0  0  0  0  0  0
   -3.2464  -21.4588   27.0992 H   0  0  0  0  0  0  0  0  0  0  0  0
   -3.1920  -22.0473   28.8603 H   0  0  0  0  0  0  0  0  0  0  0  0
   -0.4556  -21.5602   28.7633 H   0  0  0  0  0  0  0  0  0  0  0  0
   -0.7976  -20.0528   28.1303 H   0  0  0  0  0  0  0  0  0  0  0  0
    2.6146  -19.4205   27.9597 H   0  0  0  0  0  0  0  0  0  0  0  0
    3.8292  -22.0552   25.4469 H   0  0  0  0  0  0  0  0  0  0  0  0
    2.0601  -22.5583   27.2100 H   0  0  0  0  0  0  0  0  0  0  0  0
  -10.8419  -21.5120   29.2816 H   0  0  0  0  0  0  0  0  0  0  0  0
  -12.9173  -20.9465   30.7050 H   0  0  0  0  0  0  0  0  0  0  0  0
  -12.6305  -21.6328   34.9083 H   0  0  0  0  0  0  0  0  0  0  0  0
  -10.6273  -22.9980   34.5532 H   0  0  0  0  0  0  0  0  0  0  0  0
   -8.7671  -24.9320   30.9921 H   0  0  0  0  0  0  0  0  0  0  0  0
  -10.5057  -25.0105   30.9014 H   0  0  0  0  0  0  0  0  0  0  0  0
  1  2  2  0
  2  3  1  0
  3  4  1  0
  4  5  1  0
  5  6  1  0
  6  7  1  0
  7  8  1  0
  8  9  1  0
  9 10  2  0
 10 11  1  0
 11 12  1  0
  2 13  1  0
 13 14  2  0
 14 15  1  0
 15 16  2  0
 16 17  1  0
 17 18  1  0
 17 19  2  0
 19 20  1  0
 20 21  2  0
 21 22  1  0
 22 23  1  0
 12  8  2  0
 23 13  1  0
 21 15  1  0
  3 24  1  0
  4 25  1  0
  4 26  1  0
  5 27  1  0
  5 28  1  0
  6 29  1  0
  6 30  1  0
  7 31  1  0
  7 32  1  0
  9 33  1  0
 11 34  1  0
 12 35  1  0
 14 36  1  0
 16 37  1  0
 19 38  1  0
 20 39  1  0
 23 40  1  0
 23 41  1  0
M  END
>  <Energy>  (205) 
664.36246720691395

>  <compound_id>  (205) 
27396

>  <target_id>  (205) 
1

>  <reference_id>  (205) 
96

>  <inspiration_ids>  (205) 
[89, 96]

>  <energy_score>  (205) 
632.6064193923896

>  <distance_score>  (205) 
3.690053467693113

>  <path>  (205) 
/opt/xchem-fragalysis-2/maxwin/BulkDock/SCRATCH/511020/C27396-P96/C27396-P96.minimised.mol

>  <scratch_subdir>  (205) 
/opt/xchem-fragalysis-2/maxwin/BulkDock/SCRATCH/511020/C27396-P96

>  <fragmenstein_runtime>  (205) 
33.87854313850403

>  <fragmenstein_outcome>  (205) 
too moved

>  <fragmenstein_mode>  (205) 
expansion

>  <fragmenstein_error>  (205) 


$$$$
C27404-P96
     RDKit          3D

 35 37  0  0  0  0  0  0  0  0999 V2000
    0.6832  -22.0554   25.5345 O   0  0  0  0  0  0  0  0  0  0  0  0
    0.9396  -21.4001   26.4947 C   0  0  0  0  0  0  0  0  0  0  0  0
   -0.7189  -21.2344   27.7123 N   0  0  0  0  0  0  0  0  0  0  0  0
   -2.6545  -22.1207   27.6608 C   0  0  0  0  0  0  0  0  0  0  0  0
   -4.4452  -22.2620   28.8044 C   0  0  0  0  0  0  0  0  0  0  0  0
   -6.2440  -23.3689   28.9748 C   0  0  0  0  0  0  0  0  0  0  0  0
   -6.9497  -25.0025   28.9375 C   0  0  0  0  0  0  0  0  0  0  0  0
   -8.2333  -25.2327   29.1968 N   0  0  0  0  0  0  0  0  0  0  0  0
   -8.7155  -24.0741   29.5516 N   0  0  0  0  0  0  0  0  0  0  0  0
   -7.9170  -23.0450   29.2036 C   0  0  0  0  0  0  0  0  0  0  0  0
    2.8759  -20.9882   26.4705 C   0  0  0  0  0  0  0  0  0  0  0  0
    3.7751  -22.1424   26.6760 C   0  0  0  0  0  0  0  0  0  0  0  0
    5.2446  -22.3261   26.5794 C   0  0  0  0  0  0  0  0  0  0  0  0
    5.8575  -23.5336   26.8788 C   0  0  0  0  0  0  0  0  0  0  0  0
    6.6178  -24.1088   25.8717 C   0  0  0  0  0  0  0  0  0  0  0  0
    7.1890  -25.8995   26.0467 Br  0  0  0  0  0  0  0  0  0  0  0  0
    6.8136  -23.4202   24.6778 C   0  0  0  0  0  0  0  0  0  0  0  0
    6.4492  -22.0682   24.5979 C   0  0  0  0  0  0  0  0  0  0  0  0
    5.7803  -21.4941   25.6548 C   0  0  0  0  0  0  0  0  0  0  0  0
    5.2550  -20.2442   25.6786 O   0  0  0  0  0  0  0  0  0  0  0  0
    3.8797  -20.4484   25.3327 C   0  0  0  0  0  0  0  0  0  0  0  0
   -0.4571  -20.7659   28.5211 H   0  0  0  0  0  0  0  0  0  0  0  0
   -3.4317  -21.5733   27.1499 H   0  0  0  0  0  0  0  0  0  0  0  0
   -2.4973  -23.2050   27.3980 H   0  0  0  0  0  0  0  0  0  0  0  0
   -5.0120  -21.8311   27.9262 H   0  0  0  0  0  0  0  0  0  0  0  0
   -3.9775  -23.0453   29.2907 H   0  0  0  0  0  0  0  0  0  0  0  0
   -6.3161  -25.7985   28.5860 H   0  0  0  0  0  0  0  0  0  0  0  0
   -9.6990  -24.0291   29.7926 H   0  0  0  0  0  0  0  0  0  0  0  0
   -8.3854  -22.1533   28.7990 H   0  0  0  0  0  0  0  0  0  0  0  0
    3.4334  -23.0336   27.1901 H   0  0  0  0  0  0  0  0  0  0  0  0
    5.5128  -24.1416   27.7103 H   0  0  0  0  0  0  0  0  0  0  0  0
    7.3016  -23.8999   23.8355 H   0  0  0  0  0  0  0  0  0  0  0  0
    6.6478  -21.4876   23.7067 H   0  0  0  0  0  0  0  0  0  0  0  0
    3.7006  -19.5722   24.7569 H   0  0  0  0  0  0  0  0  0  0  0  0
    3.9238  -21.2268   24.5816 H   0  0  0  0  0  0  0  0  0  0  0  0
  1  2  2  0
  2  3  1  0
  3  4  1  0
  4  5  1  0
  5  6  1  0
  6  7  1  0
  7  8  2  0
  8  9  1  0
  9 10  1  0
  2 11  1  0
 11 12  2  0
 12 13  1  0
 13 14  2  0
 14 15  1  0
 15 16  1  0
 15 17  2  0
 17 18  1  0
 18 19  2  0
 19 20  1  0
 20 21  1  0
 10  6  2  0
 21 11  1  0
 19 13  1  0
  3 22  1  0
  4 23  1  0
  4 24  1  0
  5 25  1  0
  5 26  1  0
  7 27  1  0
  9 28  1  0
 10 29  1  0
 12 30  1  0
 14 31  1  0
 17 32  1  0
 18 33  1  0
 21 34  1  0
 21 35  1  0
M  END
>  <Energy>  (206) 
922.46148024248498

>  <compound_id>  (206) 
27404

>  <target_id>  (206) 
1

>  <reference_id>  (206) 
96

>  <inspiration_ids>  (206) 
[89, 96]

>  <energy_score>  (206) 
889.0798791246973

>  <distance_score>  (206) 
4.7199503078575225

>  <path>  (206) 
/opt/xchem-fragalysis-2/maxwin/BulkDock/SCRATCH/511020/C27404-P96/C27404-P96.minimised.mol

>  <scratch_subdir>  (206) 
/opt/xchem-fragalysis-2/maxwin/BulkDock/SCRATCH/511020/C27404-P96

>  <fragmenstein_runtime>  (206) 
30.05434274673462

>  <fragmenstein_outcome>  (206) 
too moved

>  <fragmenstein_mode>  (206) 
expansion

>  <fragmenstein_error>  (206) 


$$$$
C27405-P96
     RDKit          3D

 39 41  0  0  0  0  0  0  0  0999 V2000
    5.8524  -23.4201   24.5793 Br  0  0  0  0  0  0  0  0  0  0  0  0
    5.2141  -21.8618   25.3925 C   0  0  0  0  0  0  0  0  0  0  0  0
    5.8589  -20.7408   25.0183 C   0  0  0  0  0  0  0  0  0  0  0  0
    5.3788  -19.6058   25.5855 C   0  0  0  0  0  0  0  0  0  0  0  0
    5.0085  -19.7744   26.8865 C   0  0  0  0  0  0  0  0  0  0  0  0
    3.8733  -20.3760   26.8566 C   0  0  0  0  0  0  0  0  0  0  0  0
    4.1368  -21.6640   26.2709 C   0  0  0  0  0  0  0  0  0  0  0  0
    2.8414  -19.6828   27.8891 C   0  0  0  0  0  0  0  0  0  0  0  0
    3.1993  -19.6061   29.5753 C   0  0  0  0  0  0  0  0  0  0  0  0
    2.2469  -21.6126   30.5049 C   0  0  0  0  0  0  0  0  0  0  0  0
    0.6642  -22.1359   29.3679 N   0  0  0  0  0  0  0  0  0  0  0  0
   -1.0319  -21.4433   28.5501 C   0  0  0  0  0  0  0  0  0  0  0  0
   -3.1719  -22.0903   28.4585 C   0  0  0  0  0  0  0  0  0  0  0  0
   -5.1241  -22.5568   29.0512 C   0  0  0  0  0  0  0  0  0  0  0  0
   -6.9076  -23.6407   29.4023 C   0  0  0  0  0  0  0  0  0  0  0  0
   -7.8936  -23.4695   30.5924 C   0  0  0  0  0  0  0  0  0  0  0  0
   -9.0694  -24.0860   30.4989 N   0  0  0  0  0  0  0  0  0  0  0  0
   -8.8729  -24.8944   29.4781 N   0  0  0  0  0  0  0  0  0  0  0  0
   -7.5905  -24.8500   29.0109 C   0  0  0  0  0  0  0  0  0  0  0  0
    4.8724  -19.3392   29.3909 C   0  0  0  0  0  0  0  0  0  0  0  0
    5.4662  -19.2243   28.0388 O   0  0  0  0  0  0  0  0  0  0  0  0
    6.6018  -20.7165   24.2379 H   0  0  0  0  0  0  0  0  0  0  0  0
    5.6558  -18.6542   25.1531 H   0  0  0  0  0  0  0  0  0  0  0  0
    3.6496  -22.5587   26.5993 H   0  0  0  0  0  0  0  0  0  0  0  0
    2.4982  -18.7845   28.4234 H   0  0  0  0  0  0  0  0  0  0  0  0
    1.7431  -21.7418   31.5277 H   0  0  0  0  0  0  0  0  0  0  0  0
    2.7154  -22.6731   30.4076 H   0  0  0  0  0  0  0  0  0  0  0  0
    1.1710  -22.2165   28.4835 H   0  0  0  0  0  0  0  0  0  0  0  0
   -0.9777  -21.4163   27.4950 H   0  0  0  0  0  0  0  0  0  0  0  0
   -0.7754  -20.3472   28.6625 H   0  0  0  0  0  0  0  0  0  0  0  0
   -3.1402  -21.8724   29.5264 H   0  0  0  0  0  0  0  0  0  0  0  0
   -2.9991  -22.9847   27.8351 H   0  0  0  0  0  0  0  0  0  0  0  0
   -5.5705  -21.8852   28.2454 H   0  0  0  0  0  0  0  0  0  0  0  0
   -4.9676  -22.3634   30.0517 H   0  0  0  0  0  0  0  0  0  0  0  0
   -7.7669  -22.9075   31.5065 H   0  0  0  0  0  0  0  0  0  0  0  0
   -9.6032  -25.5555   29.2418 H   0  0  0  0  0  0  0  0  0  0  0  0
   -7.2815  -25.6642   28.3819 H   0  0  0  0  0  0  0  0  0  0  0  0
    5.5462  -20.0065   29.8670 H   0  0  0  0  0  0  0  0  0  0  0  0
    5.0224  -18.4947   30.0972 H   0  0  0  0  0  0  0  0  0  0  0  0
  1  2  1  0
  2  3  2  0
  3  4  1  0
  4  5  2  0
  5  6  1  0
  6  7  2  0
  6  8  1  0
  8  9  2  0
  9 10  1  0
 10 11  1  0
 11 12  1  0
 12 13  1  0
 13 14  1  0
 14 15  1  0
 15 16  1  0
 16 17  2  0
 17 18  1  0
 18 19  1  0
  9 20  1  0
 20 21  1  0
  7  2  1  0
 19 15  2  0
 21  5  1  0
  3 22  1  0
  4 23  1  0
  7 24  1  0
  8 25  1  0
 10 26  1  0
 10 27  1  0
 11 28  1  0
 12 29  1  0
 12 30  1  0
 13 31  1  0
 13 32  1  0
 14 33  1  0
 14 34  1  0
 16 35  1  0
 18 36  1  0
 19 37  1  0
 20 38  1  0
 20 39  1  0
M  END
>  <Energy>  (207) 
1335.6540867587496

>  <compound_id>  (207) 
27405

>  <target_id>  (207) 
1

>  <reference_id>  (207) 
96

>  <inspiration_ids>  (207) 
[89, 96]

>  <energy_score>  (207) 
1278.3658193987867

>  <distance_score>  (207) 
3.1847818669478984

>  <path>  (207) 
/opt/xchem-fragalysis-2/maxwin/BulkDock/SCRATCH/511020/C27405-P96/C27405-P96.minimised.mol

>  <scratch_subdir>  (207) 
/opt/xchem-fragalysis-2/maxwin/BulkDock/SCRATCH/511020/C27405-P96

>  <fragmenstein_runtime>  (207) 
10.909120798110962

>  <fragmenstein_outcome>  (207) 
too moved

>  <fragmenstein_mode>  (207) 
expansion

>  <fragmenstein_error>  (207) 


$$$$
C27408-P96
     RDKit          3D

 44 46  0  0  0  0  0  0  0  0999 V2000
   -8.3342  -23.8627   33.5208 C   0  0  0  0  0  0  0  0  0  0  0  0
   -8.7889  -25.1352   32.8331 C   0  0  0  0  0  0  0  0  0  0  0  0
  -10.1915  -25.1704   32.5724 O   0  0  0  0  0  0  0  0  0  0  0  0
  -10.6824  -24.1532   31.8149 C   0  0  0  0  0  0  0  0  0  0  0  0
  -11.3776  -23.1070   32.4213 C   0  0  0  0  0  0  0  0  0  0  0  0
  -11.7477  -21.9953   31.6657 C   0  0  0  0  0  0  0  0  0  0  0  0
  -11.3355  -21.8975   30.3358 C   0  0  0  0  0  0  0  0  0  0  0  0
  -10.6213  -22.9519   29.7514 C   0  0  0  0  0  0  0  0  0  0  0  0
  -10.4400  -24.1458   30.4582 C   0  0  0  0  0  0  0  0  0  0  0  0
   -9.8530  -25.2663   29.9276 O   0  0  0  0  0  0  0  0  0  0  0  0
   -9.2140  -25.0263   28.6847 C   0  0  0  0  0  0  0  0  0  0  0  0
   -8.7268  -23.6196   28.5620 C   0  0  0  0  0  0  0  0  0  0  0  0
   -7.3870  -23.4474   29.3509 C   0  0  0  0  0  0  0  0  0  0  0  0
   -7.4978  -23.6759   30.5614 O   0  0  0  0  0  0  0  0  0  0  0  0
   -5.7794  -22.8232   28.7056 O   0  0  0  0  0  0  0  0  0  0  0  0
   -4.6847  -21.7376   27.6231 C   0  0  0  0  0  0  0  0  0  0  0  0
   -2.7904  -22.1372   27.8730 C   0  0  0  0  0  0  0  0  0  0  0  0
   -0.7900  -21.4919   28.4712 C   0  0  0  0  0  0  0  0  0  0  0  0
    0.8336  -22.3809   29.4530 C   0  0  0  0  0  0  0  0  0  0  0  0
    2.1356  -23.2558   29.2226 C   0  0  0  0  0  0  0  0  0  0  0  0
    2.5748  -24.1999   30.0613 N   0  0  0  0  0  0  0  0  0  0  0  0
    2.1782  -23.6311   31.1392 N   0  0  0  0  0  0  0  0  0  0  0  0
    1.5998  -22.4229   30.8200 C   0  0  0  0  0  0  0  0  0  0  0  0
   -9.6863  -22.6769   28.6313 C   0  0  0  0  0  0  0  0  0  0  0  0
   -7.2689  -23.9230   33.7328 H   0  0  0  0  0  0  0  0  0  0  0  0
   -8.4997  -22.9740   32.9055 H   0  0  0  0  0  0  0  0  0  0  0  0
   -8.8775  -23.7123   34.4590 H   0  0  0  0  0  0  0  0  0  0  0  0
   -8.2316  -25.3611   31.9286 H   0  0  0  0  0  0  0  0  0  0  0  0
   -8.5869  -25.9719   33.5119 H   0  0  0  0  0  0  0  0  0  0  0  0
  -11.5829  -23.1280   33.4876 H   0  0  0  0  0  0  0  0  0  0  0  0
  -12.2673  -21.1677   32.1403 H   0  0  0  0  0  0  0  0  0  0  0  0
  -11.4727  -20.9611   29.7980 H   0  0  0  0  0  0  0  0  0  0  0  0
   -8.3594  -25.6910   28.5935 H   0  0  0  0  0  0  0  0  0  0  0  0
   -9.9037  -25.2836   27.8707 H   0  0  0  0  0  0  0  0  0  0  0  0
   -5.0381  -22.0303   26.6366 H   0  0  0  0  0  0  0  0  0  0  0  0
   -5.0716  -20.7250   27.6501 H   0  0  0  0  0  0  0  0  0  0  0  0
   -2.6783  -23.1945   27.5224 H   0  0  0  0  0  0  0  0  0  0  0  0
   -3.2489  -22.1812   28.9197 H   0  0  0  0  0  0  0  0  0  0  0  0
   -0.3576  -20.9952   27.6502 H   0  0  0  0  0  0  0  0  0  0  0  0
   -0.7546  -20.4419   28.8456 H   0  0  0  0  0  0  0  0  0  0  0  0
    2.8417  -23.1525   28.4004 H   0  0  0  0  0  0  0  0  0  0  0  0
    2.2501  -24.0980   32.0344 H   0  0  0  0  0  0  0  0  0  0  0  0
    1.4564  -21.8494   31.7273 H   0  0  0  0  0  0  0  0  0  0  0  0
   -9.4738  -21.6219   28.5186 H   0  0  0  0  0  0  0  0  0  0  0  0
  1  2  1  0
  2  3  1  0
  3  4  1  0
  4  5  2  0
  5  6  1  0
  6  7  2  0
  7  8  1  0
  8  9  2  0
  9 10  1  0
 10 11  1  0
 11 12  1  0
 12 13  1  0
 13 14  2  0
 13 15  1  0
 15 16  1  0
 16 17  1  0
 17 18  1  0
 18 19  1  0
 19 20  1  0
 20 21  2  0
 21 22  1  0
 22 23  1  0
 12 24  2  0
  9  4  1  0
 23 19  2  0
 24  8  1  0
  1 25  1  0
  1 26  1  0
  1 27  1  0
  2 28  1  0
  2 29  1  0
  5 30  1  0
  6 31  1  0
  7 32  1  0
 11 33  1  0
 11 34  1  0
 16 35  1  0
 16 36  1  0
 17 37  1  0
 17 38  1  0
 18 39  1  0
 18 40  1  0
 20 41  1  0
 22 42  1  0
 23 43  1  0
 24 44  1  0
M  END
>  <Energy>  (208) 
690.37847905007072

>  <compound_id>  (208) 
27408

>  <target_id>  (208) 
1

>  <reference_id>  (208) 
96

>  <inspiration_ids>  (208) 
[89, 96]

>  <energy_score>  (208) 
614.8401882113025

>  <distance_score>  (208) 
4.11975971249879

>  <path>  (208) 
/opt/xchem-fragalysis-2/maxwin/BulkDock/SCRATCH/511020/C27408-P96/C27408-P96.minimised.mol

>  <scratch_subdir>  (208) 
/opt/xchem-fragalysis-2/maxwin/BulkDock/SCRATCH/511020/C27408-P96

>  <fragmenstein_runtime>  (208) 
33.69822978973389

>  <fragmenstein_outcome>  (208) 
too moved

>  <fragmenstein_mode>  (208) 
expansion

>  <fragmenstein_error>  (208) 


$$$$
C27408-P96
     RDKit          3D

 44 46  0  0  0  0  0  0  0  0999 V2000
   -8.3342  -23.8627   33.5208 C   0  0  0  0  0  0  0  0  0  0  0  0
   -8.7889  -25.1352   32.8331 C   0  0  0  0  0  0  0  0  0  0  0  0
  -10.1915  -25.1704   32.5724 O   0  0  0  0  0  0  0  0  0  0  0  0
  -10.6824  -24.1532   31.8149 C   0  0  0  0  0  0  0  0  0  0  0  0
  -11.3776  -23.1070   32.4213 C   0  0  0  0  0  0  0  0  0  0  0  0
  -11.7477  -21.9953   31.6657 C   0  0  0  0  0  0  0  0  0  0  0  0
  -11.3355  -21.8975   30.3358 C   0  0  0  0  0  0  0  0  0  0  0  0
  -10.6213  -22.9519   29.7514 C   0  0  0  0  0  0  0  0  0  0  0  0
  -10.4400  -24.1458   30.4582 C   0  0  0  0  0  0  0  0  0  0  0  0
   -9.8530  -25.2663   29.9276 O   0  0  0  0  0  0  0  0  0  0  0  0
   -9.2140  -25.0263   28.6847 C   0  0  0  0  0  0  0  0  0  0  0  0
   -8.7268  -23.6196   28.5620 C   0  0  0  0  0  0  0  0  0  0  0  0
   -7.3870  -23.4474   29.3509 C   0  0  0  0  0  0  0  0  0  0  0  0
   -7.4978  -23.6759   30.5614 O   0  0  0  0  0  0  0  0  0  0  0  0
   -5.7794  -22.8232   28.7056 O   0  0  0  0  0  0  0  0  0  0  0  0
   -4.6847  -21.7376   27.6231 C   0  0  0  0  0  0  0  0  0  0  0  0
   -2.7904  -22.1372   27.8730 C   0  0  0  0  0  0  0  0  0  0  0  0
   -0.7900  -21.4919   28.4712 C   0  0  0  0  0  0  0  0  0  0  0  0
    0.8336  -22.3809   29.4530 C   0  0  0  0  0  0  0  0  0  0  0  0
    2.1356  -23.2558   29.2226 C   0  0  0  0  0  0  0  0  0  0  0  0
    2.5748  -24.1999   30.0613 N   0  0  0  0  0  0  0  0  0  0  0  0
    2.1782  -23.6311   31.1392 N   0  0  0  0  0  0  0  0  0  0  0  0
    1.5998  -22.4229   30.8200 C   0  0  0  0  0  0  0  0  0  0  0  0
   -9.6863  -22.6769   28.6313 C   0  0  0  0  0  0  0  0  0  0  0  0
   -7.2689  -23.9230   33.7328 H   0  0  0  0  0  0  0  0  0  0  0  0
   -8.4997  -22.9740   32.9055 H   0  0  0  0  0  0  0  0  0  0  0  0
   -8.8775  -23.7123   34.4590 H   0  0  0  0  0  0  0  0  0  0  0  0
   -8.2316  -25.3611   31.9286 H   0  0  0  0  0  0  0  0  0  0  0  0
   -8.5869  -25.9719   33.5119 H   0  0  0  0  0  0  0  0  0  0  0  0
  -11.5829  -23.1280   33.4876 H   0  0  0  0  0  0  0  0  0  0  0  0
  -12.2673  -21.1677   32.1403 H   0  0  0  0  0  0  0  0  0  0  0  0
  -11.4727  -20.9611   29.7980 H   0  0  0  0  0  0  0  0  0  0  0  0
   -8.3594  -25.6910   28.5935 H   0  0  0  0  0  0  0  0  0  0  0  0
   -9.9037  -25.2836   27.8707 H   0  0  0  0  0  0  0  0  0  0  0  0
   -5.0381  -22.0303   26.6366 H   0  0  0  0  0  0  0  0  0  0  0  0
   -5.0716  -20.7250   27.6501 H   0  0  0  0  0  0  0  0  0  0  0  0
   -2.6783  -23.1945   27.5224 H   0  0  0  0  0  0  0  0  0  0  0  0
   -3.2489  -22.1812   28.9197 H   0  0  0  0  0  0  0  0  0  0  0  0
   -0.3576  -20.9952   27.6502 H   0  0  0  0  0  0  0  0  0  0  0  0
   -0.7546  -20.4419   28.8456 H   0  0  0  0  0  0  0  0  0  0  0  0
    2.8417  -23.1525   28.4004 H   0  0  0  0  0  0  0  0  0  0  0  0
    2.2501  -24.0980   32.0344 H   0  0  0  0  0  0  0  0  0  0  0  0
    1.4564  -21.8494   31.7273 H   0  0  0  0  0  0  0  0  0  0  0  0
   -9.4738  -21.6219   28.5186 H   0  0  0  0  0  0  0  0  0  0  0  0
  1  2  1  0
  2  3  1  0
  3  4  1  0
  4  5  2  0
  5  6  1  0
  6  7  2  0
  7  8  1  0
  8  9  2  0
  9 10  1  0
 10 11  1  0
 11 12  1  0
 12 13  1  0
 13 14  2  0
 13 15  1  0
 15 16  1  0
 16 17  1  0
 17 18  1  0
 18 19  1  0
 19 20  1  0
 20 21  2  0
 21 22  1  0
 22 23  1  0
 12 24  2  0
  9  4  1  0
 23 19  2  0
 24  8  1  0
  1 25  1  0
  1 26  1  0
  1 27  1  0
  2 28  1  0
  2 29  1  0
  5 30  1  0
  6 31  1  0
  7 32  1  0
 11 33  1  0
 11 34  1  0
 16 35  1  0
 16 36  1  0
 17 37  1  0
 17 38  1  0
 18 39  1  0
 18 40  1  0
 20 41  1  0
 22 42  1  0
 23 43  1  0
 24 44  1  0
M  END
>  <Energy>  (209) 
690.37847905007072

>  <compound_id>  (209) 
27408

>  <target_id>  (209) 
1

>  <reference_id>  (209) 
96

>  <inspiration_ids>  (209) 
[89, 96]

>  <energy_score>  (209) 
614.8401882113025

>  <distance_score>  (209) 
4.11975971249879

>  <path>  (209) 
/opt/xchem-fragalysis-2/maxwin/BulkDock/SCRATCH/511020/C27408-P96/C27408-P96.minimised.mol

>  <scratch_subdir>  (209) 
/opt/xchem-fragalysis-2/maxwin/BulkDock/SCRATCH/511020/C27408-P96

>  <fragmenstein_runtime>  (209) 
34.128963232040405

>  <fragmenstein_outcome>  (209) 
too moved

>  <fragmenstein_mode>  (209) 
expansion

>  <fragmenstein_error>  (209) 


$$$$
C27392-P96
     RDKit          3D

 35 37  0  0  0  0  0  0  0  0999 V2000
    6.0868  -23.8353   27.3515 C   0  0  0  0  0  0  0  0  0  0  0  0
    4.8332  -24.0707   27.9681 O   0  0  0  0  0  0  0  0  0  0  0  0
    4.1039  -22.9123   28.1997 C   0  0  0  0  0  0  0  0  0  0  0  0
    3.0062  -23.1501   29.6470 C   0  0  0  0  0  0  0  0  0  0  0  0
    2.4391  -21.6448   30.5581 C   0  0  0  0  0  0  0  0  0  0  0  0
    3.2084  -19.6698   29.7410 C   0  0  0  0  0  0  0  0  0  0  0  0
    4.5543  -19.6622   28.6305 C   0  0  0  0  0  0  0  0  0  0  0  0
    4.7836  -21.2311   27.7095 C   0  0  0  0  0  0  0  0  0  0  0  0
    4.7721  -18.8284   30.1983 O   0  0  0  0  0  0  0  0  0  0  0  0
    3.4054  -17.7769   30.9373 C   0  0  0  0  0  0  0  0  0  0  0  0
    1.8016  -17.5066   30.0156 C   0  0  0  0  0  0  0  0  0  0  0  0
   -0.1001  -17.3557   29.8277 C   0  0  0  0  0  0  0  0  0  0  0  0
   -0.4440  -16.2203   30.0718 O   0  0  0  0  0  0  0  0  0  0  0  0
   -1.3880  -18.8270   29.4703 O   0  0  0  0  0  0  0  0  0  0  0  0
   -3.1018  -19.9962   29.6604 C   0  0  0  0  0  0  0  0  0  0  0  0
   -4.2601  -20.6174   27.9538 C   0  0  0  0  0  0  0  0  0  0  0  0
   -4.1470  -21.8255   27.4147 C   0  0  0  0  0  0  0  0  0  0  0  0
   -5.1514  -22.0153   26.5443 N   0  0  0  0  0  0  0  0  0  0  0  0
   -6.1244  -21.4742   27.1646 N   0  0  0  0  0  0  0  0  0  0  0  0
   -5.5469  -20.3426   27.5237 C   0  0  0  0  0  0  0  0  0  0  0  0
    2.0984  -18.4543   29.2398 C   0  0  0  0  0  0  0  0  0  0  0  0
    6.5823  -24.8023   27.2210 H   0  0  0  0  0  0  0  0  0  0  0  0
    5.9791  -23.3803   26.3618 H   0  0  0  0  0  0  0  0  0  0  0  0
    6.7212  -23.2220   27.9962 H   0  0  0  0  0  0  0  0  0  0  0  0
    2.7885  -24.1369   30.0392 H   0  0  0  0  0  0  0  0  0  0  0  0
    1.7307  -21.8873   31.3786 H   0  0  0  0  0  0  0  0  0  0  0  0
    5.4810  -21.1924   26.8711 H   0  0  0  0  0  0  0  0  0  0  0  0
    4.0267  -16.9299   30.9322 H   0  0  0  0  0  0  0  0  0  0  0  0
    3.3770  -17.9773   32.0094 H   0  0  0  0  0  0  0  0  0  0  0  0
   -3.2516  -20.2602   30.7098 H   0  0  0  0  0  0  0  0  0  0  0  0
   -3.0031  -21.1822   29.7429 H   0  0  0  0  0  0  0  0  0  0  0  0
   -3.3032  -22.4893   27.5628 H   0  0  0  0  0  0  0  0  0  0  0  0
   -7.0763  -21.6575   26.8880 H   0  0  0  0  0  0  0  0  0  0  0  0
   -6.2750  -19.5646   27.5004 H   0  0  0  0  0  0  0  0  0  0  0  0
    1.0850  -18.7265   28.9689 H   0  0  0  0  0  0  0  0  0  0  0  0
  1  2  1  0
  2  3  1  0
  3  4  2  0
  4  5  1  0
  5  6  2  0
  6  7  1  0
  7  8  2  0
  7  9  1  0
  9 10  1  0
 10 11  1  0
 11 12  1  0
 12 13  2  0
 12 14  1  0
 14 15  1  0
 15 16  1  0
 16 17  1  0
 17 18  2  0
 18 19  1  0
 19 20  1  0
 11 21  2  0
  8  3  1  0
 20 16  2  0
 21  6  1  0
  1 22  1  0
  1 23  1  0
  1 24  1  0
  4 25  1  0
  5 26  1  0
  8 27  1  0
 10 28  1  0
 10 29  1  0
 15 30  1  0
 15 31  1  0
 17 32  1  0
 19 33  1  0
 20 34  1  0
 21 35  1  0
M  END
>  <Energy>  (210) 
1558.1561441664087

>  <compound_id>  (210) 
27392

>  <target_id>  (210) 
1

>  <reference_id>  (210) 
96

>  <inspiration_ids>  (210) 
[89, 96]

>  <energy_score>  (210) 
1511.0960925123975

>  <distance_score>  (210) 
4.5300582389459025

>  <path>  (210) 
/opt/xchem-fragalysis-2/maxwin/BulkDock/SCRATCH/511020/C27392-P96/C27392-P96.minimised.mol

>  <scratch_subdir>  (210) 
/opt/xchem-fragalysis-2/maxwin/BulkDock/SCRATCH/511020/C27392-P96

>  <fragmenstein_runtime>  (210) 
12.758172988891602

>  <fragmenstein_outcome>  (210) 
too moved

>  <fragmenstein_mode>  (210) 
expansion

>  <fragmenstein_error>  (210) 


$$$$
C9285-P96
     RDKit          3D

 33 35  0  0  0  0  0  0  0  0999 V2000
    5.4090  -22.3872   25.4324 C   0  0  0  0  0  0  0  0  0  0  0  0
    5.7087  -21.6683   26.6154 O   0  0  0  0  0  0  0  0  0  0  0  0
    4.6344  -21.6261   27.4708 C   0  0  0  0  0  0  0  0  0  0  0  0
    3.9973  -23.1235   28.2351 C   0  0  0  0  0  0  0  0  0  0  0  0
    2.9810  -23.1833   29.7183 C   0  0  0  0  0  0  0  0  0  0  0  0
    2.3228  -21.6258   30.4795 C   0  0  0  0  0  0  0  0  0  0  0  0
    3.1439  -19.6535   29.6570 C   0  0  0  0  0  0  0  0  0  0  0  0
    4.3288  -20.0125   28.1791 C   0  0  0  0  0  0  0  0  0  0  0  0
    1.5701  -18.6417   29.1601 O   0  0  0  0  0  0  0  0  0  0  0  0
   -0.2227  -19.3146   28.6720 C   0  0  0  0  0  0  0  0  0  0  0  0
   -0.7685  -21.2352   28.7780 C   0  0  0  0  0  0  0  0  0  0  0  0
   -2.8540  -21.5552   29.3688 C   0  0  0  0  0  0  0  0  0  0  0  0
   -3.0689  -21.2869   30.5335 O   0  0  0  0  0  0  0  0  0  0  0  0
   -3.9947  -22.0023   28.2030 N   0  0  0  0  0  0  0  0  0  0  0  0
   -5.7833  -22.2231   28.3139 C   0  0  0  0  0  0  0  0  0  0  0  0
   -7.1100  -23.4590   29.2762 C   0  0  0  0  0  0  0  0  0  0  0  0
   -8.3954  -22.9669   28.9199 C   0  0  0  0  0  0  0  0  0  0  0  0
   -8.0924  -21.7855   28.2235 N   0  0  0  0  0  0  0  0  0  0  0  0
   -6.7348  -21.4363   27.6539 N   0  0  0  0  0  0  0  0  0  0  0  0
    0.6435  -22.0384   29.4550 C   0  0  0  0  0  0  0  0  0  0  0  0
    5.8030  -23.4020   25.5197 H   0  0  0  0  0  0  0  0  0  0  0  0
    5.9366  -21.9044   24.6043 H   0  0  0  0  0  0  0  0  0  0  0  0
    4.3431  -22.3925   25.1901 H   0  0  0  0  0  0  0  0  0  0  0  0
    4.4793  -24.0543   27.9346 H   0  0  0  0  0  0  0  0  0  0  0  0
    2.7492  -24.1369   30.1872 H   0  0  0  0  0  0  0  0  0  0  0  0
    5.2513  -19.4225   28.0871 H   0  0  0  0  0  0  0  0  0  0  0  0
   -0.2333  -19.1222   27.6134 H   0  0  0  0  0  0  0  0  0  0  0  0
   -0.9873  -18.6685   29.0974 H   0  0  0  0  0  0  0  0  0  0  0  0
   -3.5510  -22.0798   27.3281 H   0  0  0  0  0  0  0  0  0  0  0  0
   -7.0931  -23.7257   30.3269 H   0  0  0  0  0  0  0  0  0  0  0  0
   -9.3803  -23.1294   29.3353 H   0  0  0  0  0  0  0  0  0  0  0  0
   -8.7665  -21.0374   28.2732 H   0  0  0  0  0  0  0  0  0  0  0  0
    0.8841  -23.0177   29.8565 H   0  0  0  0  0  0  0  0  0  0  0  0
  1  2  1  0
  2  3  1  0
  3  4  2  0
  4  5  1  0
  5  6  2  0
  6  7  1  0
  7  8  2  0
  7  9  1  0
  9 10  1  0
 10 11  1  0
 11 12  1  0
 12 13  2  0
 12 14  1  0
 14 15  1  0
 15 16  1  0
 16 17  2  0
 17 18  1  0
 18 19  1  0
 11 20  2  0
  8  3  1  0
 19 15  2  0
 20  6  1  0
  1 21  1  0
  1 22  1  0
  1 23  1  0
  4 24  1  0
  5 25  1  0
  8 26  1  0
 10 27  1  0
 10 28  1  0
 14 29  1  0
 16 30  1  0
 17 31  1  0
 18 32  1  0
 20 33  1  0
M  END
>  <Energy>  (211) 
1456.6396178662058

>  <compound_id>  (211) 
9285

>  <target_id>  (211) 
1

>  <reference_id>  (211) 
96

>  <inspiration_ids>  (211) 
[89, 96]

>  <energy_score>  (211) 
1445.655414296502

>  <distance_score>  (211) 
4.005789023221945

>  <path>  (211) 
/opt/xchem-fragalysis-2/maxwin/BulkDock/SCRATCH/511020/C9285-P96/C9285-P96.minimised.mol

>  <scratch_subdir>  (211) 
/opt/xchem-fragalysis-2/maxwin/BulkDock/SCRATCH/511020/C9285-P96

>  <fragmenstein_runtime>  (211) 
18.14025044441223

>  <fragmenstein_outcome>  (211) 
too moved

>  <fragmenstein_mode>  (211) 
expansion

>  <fragmenstein_error>  (211) 


$$$$
C27391-P96
     RDKit          3D

 39 41  0  0  0  0  0  0  0  0999 V2000
    5.9788  -22.9272   23.9037 C   0  0  0  0  0  0  0  0  0  0  0  0
    6.4266  -22.0161   24.8946 O   0  0  0  0  0  0  0  0  0  0  0  0
    5.4780  -21.4354   25.6744 C   0  0  0  0  0  0  0  0  0  0  0  0
    4.1600  -21.5202   25.5542 C   0  0  0  0  0  0  0  0  0  0  0  0
    3.3611  -20.8032   26.4448 C   0  0  0  0  0  0  0  0  0  0  0  0
    3.7992  -20.0686   27.6257 C   0  0  0  0  0  0  0  0  0  0  0  0
    5.0977  -20.0715   27.7652 C   0  0  0  0  0  0  0  0  0  0  0  0
    5.8804  -20.7154   26.7749 C   0  0  0  0  0  0  0  0  0  0  0  0
    5.1921  -19.5160   29.0252 O   0  0  0  0  0  0  0  0  0  0  0  0
    3.5858  -19.3723   29.9599 C   0  0  0  0  0  0  0  0  0  0  0  0
    2.4624  -21.3168   30.5408 C   0  0  0  0  0  0  0  0  0  0  0  0
    1.2146  -22.2078   29.2694 C   0  0  0  0  0  0  0  0  0  0  0  0
    1.7601  -23.1649   28.8142 O   0  0  0  0  0  0  0  0  0  0  0  0
   -0.4764  -21.3969   28.8096 N   0  0  0  0  0  0  0  0  0  0  0  0
   -0.3377  -20.3301   27.7687 C   0  0  0  0  0  0  0  0  0  0  0  0
   -1.8342  -22.0441   27.5229 C   0  0  0  0  0  0  0  0  0  0  0  0
   -3.8310  -21.9570   27.2879 C   0  0  0  0  0  0  0  0  0  0  0  0
   -5.0205  -22.4288   25.9404 C   0  0  0  0  0  0  0  0  0  0  0  0
   -6.0321  -21.5992   25.7157 N   0  0  0  0  0  0  0  0  0  0  0  0
   -5.7864  -20.6848   26.6299 N   0  0  0  0  0  0  0  0  0  0  0  0
   -4.9491  -21.2034   27.5843 C   0  0  0  0  0  0  0  0  0  0  0  0
    3.1398  -19.6178   29.5150 C   0  0  0  0  0  0  0  0  0  0  0  0
    6.8481  -23.2441   23.3196 H   0  0  0  0  0  0  0  0  0  0  0  0
    5.2757  -22.4655   23.2106 H   0  0  0  0  0  0  0  0  0  0  0  0
    5.5508  -23.8213   24.3598 H   0  0  0  0  0  0  0  0  0  0  0  0
    3.7472  -22.2428   24.8798 H   0  0  0  0  0  0  0  0  0  0  0  0
    2.3655  -21.2480   26.4611 H   0  0  0  0  0  0  0  0  0  0  0  0
    6.9293  -20.6769   26.6970 H   0  0  0  0  0  0  0  0  0  0  0  0
    4.4832  -18.9212   30.8106 H   0  0  0  0  0  0  0  0  0  0  0  0
    3.1869  -18.1824   30.5695 H   0  0  0  0  0  0  0  0  0  0  0  0
   -0.8437  -19.3873   27.4977 H   0  0  0  0  0  0  0  0  0  0  0  0
    0.6693  -20.3030   27.2705 H   0  0  0  0  0  0  0  0  0  0  0  0
   -0.3527  -19.5219   28.5753 H   0  0  0  0  0  0  0  0  0  0  0  0
   -1.2390  -21.8689   26.6637 H   0  0  0  0  0  0  0  0  0  0  0  0
   -1.8475  -23.1983   27.3852 H   0  0  0  0  0  0  0  0  0  0  0  0
   -4.7491  -23.0992   25.1128 H   0  0  0  0  0  0  0  0  0  0  0  0
   -6.5270  -20.0327   26.8407 H   0  0  0  0  0  0  0  0  0  0  0  0
   -5.6889  -21.6638   28.1875 H   0  0  0  0  0  0  0  0  0  0  0  0
    2.2816  -18.7807   28.9709 H   0  0  0  0  0  0  0  0  0  0  0  0
  1  2  1  0
  2  3  1  0
  3  4  2  0
  4  5  1  0
  5  6  2  0
  6  7  1  0
  7  8  2  0
  7  9  1  0
  9 10  1  0
 10 11  1  0
 11 12  1  0
 12 13  2  0
 12 14  1  0
 14 15  1  0
 14 16  1  0
 16 17  1  0
 17 18  1  0
 18 19  2  0
 19 20  1  0
 20 21  1  0
 11 22  2  0
  8  3  1  0
 21 17  2  0
 22  6  1  0
  1 23  1  0
  1 24  1  0
  1 25  1  0
  4 26  1  0
  5 27  1  0
  8 28  1  0
 10 29  1  0
 10 30  1  0
 15 31  1  0
 15 32  1  0
 15 33  1  0
 16 34  1  0
 16 35  1  0
 18 36  1  0
 20 37  1  0
 21 38  1  0
 22 39  1  0
M  END
>  <Energy>  (212) 
1708.2115704411983

>  <compound_id>  (212) 
27391

>  <target_id>  (212) 
1

>  <reference_id>  (212) 
96

>  <inspiration_ids>  (212) 
[89, 96]

>  <energy_score>  (212) 
1659.293694801268

>  <distance_score>  (212) 
4.566260231858642

>  <path>  (212) 
/opt/xchem-fragalysis-2/maxwin/BulkDock/SCRATCH/511020/C27391-P96/C27391-P96.minimised.mol

>  <scratch_subdir>  (212) 
/opt/xchem-fragalysis-2/maxwin/BulkDock/SCRATCH/511020/C27391-P96

>  <fragmenstein_runtime>  (212) 
17.317659616470337

>  <fragmenstein_outcome>  (212) 
too moved

>  <fragmenstein_mode>  (212) 
expansion

>  <fragmenstein_error>  (212) 


$$$$
C27410-P96
     RDKit          3D

 38 40  0  0  0  0  0  0  0  0999 V2000
    5.9815  -21.4914   24.6269 C   0  0  0  0  0  0  0  0  0  0  0  0
    5.8548  -20.0874   24.9073 O   0  0  0  0  0  0  0  0  0  0  0  0
    4.9489  -19.7399   25.8667 C   0  0  0  0  0  0  0  0  0  0  0  0
    4.3453  -20.6505   26.5936 C   0  0  0  0  0  0  0  0  0  0  0  0
    4.8494  -20.4711   27.8955 C   0  0  0  0  0  0  0  0  0  0  0  0
    4.9012  -19.4893   29.0609 C   0  0  0  0  0  0  0  0  0  0  0  0
    5.5520  -18.6683   28.3231 C   0  0  0  0  0  0  0  0  0  0  0  0
    5.1323  -18.5793   26.6151 C   0  0  0  0  0  0  0  0  0  0  0  0
    5.5830  -17.5097   29.7003 O   0  0  0  0  0  0  0  0  0  0  0  0
    5.3267  -18.5620   31.2294 C   0  0  0  0  0  0  0  0  0  0  0  0
    4.1318  -19.0055   32.1388 C   0  0  0  0  0  0  0  0  0  0  0  0
    3.2829  -20.9260   32.8498 C   0  0  0  0  0  0  0  0  0  0  0  0
    4.2197  -21.7137   33.1876 O   0  0  0  0  0  0  0  0  0  0  0  0
    1.2821  -21.3169   32.7781 O   0  0  0  0  0  0  0  0  0  0  0  0
   -0.7663  -21.9907   32.8633 C   0  0  0  0  0  0  0  0  0  0  0  0
   -2.5747  -21.5756   31.7410 C   0  0  0  0  0  0  0  0  0  0  0  0
   -3.2497  -21.6600   29.7971 C   0  0  0  0  0  0  0  0  0  0  0  0
   -4.6389  -22.3919   29.3441 C   0  0  0  0  0  0  0  0  0  0  0  0
   -5.4109  -21.9385   28.2090 N   0  0  0  0  0  0  0  0  0  0  0  0
   -4.4096  -21.5425   27.5339 N   0  0  0  0  0  0  0  0  0  0  0  0
   -3.3433  -22.1281   28.2977 C   0  0  0  0  0  0  0  0  0  0  0  0
    3.9713  -18.6408   30.5602 C   0  0  0  0  0  0  0  0  0  0  0  0
    6.3668  -22.0385   25.4909 H   0  0  0  0  0  0  0  0  0  0  0  0
    5.0371  -21.9352   24.2927 H   0  0  0  0  0  0  0  0  0  0  0  0
    6.6896  -21.6222   23.8094 H   0  0  0  0  0  0  0  0  0  0  0  0
    4.2437  -21.6723   26.2364 H   0  0  0  0  0  0  0  0  0  0  0  0
    5.7960  -21.0673   27.8216 H   0  0  0  0  0  0  0  0  0  0  0  0
    5.3493  -17.6542   26.0710 H   0  0  0  0  0  0  0  0  0  0  0  0
    5.5651  -18.0469   32.1299 H   0  0  0  0  0  0  0  0  0  0  0  0
    5.7679  -19.4799   30.9693 H   0  0  0  0  0  0  0  0  0  0  0  0
   -1.2033  -21.3774   33.5807 H   0  0  0  0  0  0  0  0  0  0  0  0
   -0.9360  -22.9983   33.3209 H   0  0  0  0  0  0  0  0  0  0  0  0
   -3.1120  -20.6547   31.8252 H   0  0  0  0  0  0  0  0  0  0  0  0
   -3.4190  -21.9928   32.2757 H   0  0  0  0  0  0  0  0  0  0  0  0
   -5.1849  -22.6633   30.1894 H   0  0  0  0  0  0  0  0  0  0  0  0
   -4.5614  -20.6830   27.0228 H   0  0  0  0  0  0  0  0  0  0  0  0
   -2.8369  -22.8854   27.6864 H   0  0  0  0  0  0  0  0  0  0  0  0
    2.9584  -18.3361   30.2231 H   0  0  0  0  0  0  0  0  0  0  0  0
  1  2  1  0
  2  3  1  0
  3  4  2  0
  4  5  1  0
  5  6  2  0
  6  7  1  0
  7  8  2  0
  7  9  1  0
  9 10  1  0
 10 11  1  0
 11 12  1  0
 12 13  2  0
 12 14  1  0
 14 15  1  0
 15 16  1  0
 16 17  1  0
 17 18  1  0
 18 19  2  0
 19 20  1  0
 20 21  1  0
 11 22  2  0
  8  3  1  0
 21 17  2  0
 22  6  1  0
  1 23  1  0
  1 24  1  0
  1 25  1  0
  4 26  1  0
  5 27  1  0
  8 28  1  0
 10 29  1  0
 10 30  1  0
 15 31  1  0
 15 32  1  0
 16 33  1  0
 16 34  1  0
 18 35  1  0
 20 36  1  0
 21 37  1  0
 22 38  1  0
M  END
>  <Energy>  (213) 
1641.4645396104797

>  <compound_id>  (213) 
27410

>  <target_id>  (213) 
1

>  <reference_id>  (213) 
96

>  <inspiration_ids>  (213) 
[89, 96]

>  <energy_score>  (213) 
1581.0811782957658

>  <distance_score>  (213) 
4.4863148940193

>  <path>  (213) 
/opt/xchem-fragalysis-2/maxwin/BulkDock/SCRATCH/511020/C27410-P96/C27410-P96.minimised.mol

>  <scratch_subdir>  (213) 
/opt/xchem-fragalysis-2/maxwin/BulkDock/SCRATCH/511020/C27410-P96

>  <fragmenstein_runtime>  (213) 
12.700751066207886

>  <fragmenstein_outcome>  (213) 
too moved

>  <fragmenstein_mode>  (213) 
expansion

>  <fragmenstein_error>  (213) 


$$$$
C46648-P96
     RDKit          3D

 42 45  0  0  0  0  0  0  0  0999 V2000
    5.3425  -24.9010   22.8609 C   0  0  0  0  0  0  0  0  0  0  0  0
    5.8902  -23.6113   23.0138 O   0  0  0  0  0  0  0  0  0  0  0  0
    5.4247  -22.8485   24.0379 C   0  0  0  0  0  0  0  0  0  0  0  0
    6.2509  -21.8274   24.3718 C   0  0  0  0  0  0  0  0  0  0  0  0
    5.8121  -20.8539   25.2290 C   0  0  0  0  0  0  0  0  0  0  0  0
    4.5357  -20.9094   25.7610 C   0  0  0  0  0  0  0  0  0  0  0  0
    3.6547  -21.9057   25.5703 C   0  0  0  0  0  0  0  0  0  0  0  0
    4.1464  -22.8256   24.5918 C   0  0  0  0  0  0  0  0  0  0  0  0
    2.0393  -21.6575   26.1417 C   0  0  0  0  0  0  0  0  0  0  0  0
    1.3673  -20.9346   27.0566 C   0  0  0  0  0  0  0  0  0  0  0  0
   -0.4798  -20.7497   27.7817 C   0  0  0  0  0  0  0  0  0  0  0  0
   -0.6160  -19.6412   28.3761 O   0  0  0  0  0  0  0  0  0  0  0  0
   -1.8789  -21.8752   27.5399 O   0  0  0  0  0  0  0  0  0  0  0  0
   -3.7770  -21.8573   28.1614 C   0  0  0  0  0  0  0  0  0  0  0  0
   -5.7743  -22.2505   28.2909 C   0  0  0  0  0  0  0  0  0  0  0  0
   -6.7255  -21.4034   27.6789 N   0  0  0  0  0  0  0  0  0  0  0  0
   -8.0784  -21.7659   28.1902 N   0  0  0  0  0  0  0  0  0  0  0  0
   -8.4134  -22.9709   28.7812 C   0  0  0  0  0  0  0  0  0  0  0  0
   -7.1412  -23.4520   29.2922 C   0  0  0  0  0  0  0  0  0  0  0  0
   -7.8092  -23.6902   30.8520 C   0  0  0  0  0  0  0  0  0  0  0  0
   -9.2094  -24.2730   30.5294 C   0  0  0  0  0  0  0  0  0  0  0  0
   -9.7020  -23.3980   29.3714 C   0  0  0  0  0  0  0  0  0  0  0  0
    2.9141  -19.9915   27.1206 C   0  0  0  0  0  0  0  0  0  0  0  0
    3.9872  -19.7882   26.1932 O   0  0  0  0  0  0  0  0  0  0  0  0
    4.3135  -24.8496   22.4975 H   0  0  0  0  0  0  0  0  0  0  0  0
    5.9254  -25.4213   22.0940 H   0  0  0  0  0  0  0  0  0  0  0  0
    5.4374  -25.4806   23.7821 H   0  0  0  0  0  0  0  0  0  0  0  0
    7.0990  -21.6318   23.7442 H   0  0  0  0  0  0  0  0  0  0  0  0
    6.3640  -19.9355   25.2230 H   0  0  0  0  0  0  0  0  0  0  0  0
    3.4369  -23.4229   24.0376 H   0  0  0  0  0  0  0  0  0  0  0  0
    1.2963  -21.9855   25.3546 H   0  0  0  0  0  0  0  0  0  0  0  0
   -3.5622  -22.5426   28.9481 H   0  0  0  0  0  0  0  0  0  0  0  0
   -3.9774  -22.0984   27.1403 H   0  0  0  0  0  0  0  0  0  0  0  0
   -8.7440  -21.0165   28.2673 H   0  0  0  0  0  0  0  0  0  0  0  0
   -8.0245  -22.7480   31.3516 H   0  0  0  0  0  0  0  0  0  0  0  0
   -7.3353  -24.2330   31.6572 H   0  0  0  0  0  0  0  0  0  0  0  0
   -9.1139  -25.3142   30.2053 H   0  0  0  0  0  0  0  0  0  0  0  0
   -9.8862  -24.2383   31.3884 H   0  0  0  0  0  0  0  0  0  0  0  0
  -10.3086  -23.9728   28.6665 H   0  0  0  0  0  0  0  0  0  0  0  0
  -10.2893  -22.5501   29.7359 H   0  0  0  0  0  0  0  0  0  0  0  0
    3.8048  -20.2797   27.7016 H   0  0  0  0  0  0  0  0  0  0  0  0
    2.6397  -19.3637   27.9208 H   0  0  0  0  0  0  0  0  0  0  0  0
  1  2  1  0
  2  3  1  0
  3  4  2  0
  4  5  1  0
  5  6  2  0
  6  7  1  0
  7  8  2  0
  7  9  1  0
  9 10  2  0
 10 11  1  0
 11 12  2  0
 11 13  1  0
 13 14  1  0
 14 15  1  0
 15 16  2  0
 16 17  1  0
 17 18  1  0
 18 19  2  0
 19 20  1  0
 20 21  1  0
 21 22  1  0
 10 23  1  0
 23 24  1  0
  8  3  1  0
 19 15  1  0
 24  6  1  0
 22 18  1  0
  1 25  1  0
  1 26  1  0
  1 27  1  0
  4 28  1  0
  5 29  1  0
  8 30  1  0
  9 31  1  0
 14 32  1  0
 14 33  1  0
 17 34  1  0
 20 35  1  0
 20 36  1  0
 21 37  1  0
 21 38  1  0
 22 39  1  0
 22 40  1  0
 23 41  1  0
 23 42  1  0
M  END
>  <Energy>  (214) 
813.57269622386991

>  <compound_id>  (214) 
46648

>  <target_id>  (214) 
1

>  <reference_id>  (214) 
96

>  <inspiration_ids>  (214) 
[89, 96]

>  <energy_score>  (214) 
722.6844850768596

>  <distance_score>  (214) 
4.4017710856122445

>  <path>  (214) 
/opt/xchem-fragalysis-2/maxwin/BulkDock/SCRATCH/511020/C46648-P96/C46648-P96.minimised.mol

>  <scratch_subdir>  (214) 
/opt/xchem-fragalysis-2/maxwin/BulkDock/SCRATCH/511020/C46648-P96

>  <fragmenstein_runtime>  (214) 
18.763229370117188

>  <fragmenstein_outcome>  (214) 
too moved

>  <fragmenstein_mode>  (214) 
expansion

>  <fragmenstein_error>  (214) 


$$$$
C9286-P96
     RDKit          3D

 33 35  0  0  0  0  0  0  0  0999 V2000
    5.9950  -25.5114   27.9584 C   0  0  0  0  0  0  0  0  0  0  0  0
    6.3996  -24.1641   28.1580 O   0  0  0  0  0  0  0  0  0  0  0  0
    5.8470  -23.2538   27.3227 C   0  0  0  0  0  0  0  0  0  0  0  0
    6.3394  -22.0105   27.2983 C   0  0  0  0  0  0  0  0  0  0  0  0
    5.5241  -20.8958   26.9192 C   0  0  0  0  0  0  0  0  0  0  0  0
    4.3658  -21.1424   26.2438 C   0  0  0  0  0  0  0  0  0  0  0  0
    4.2177  -22.3815   25.8362 C   0  0  0  0  0  0  0  0  0  0  0  0
    4.5926  -23.1980   26.8873 C   0  0  0  0  0  0  0  0  0  0  0  0
    3.1384  -22.5104   24.8369 C   0  0  0  0  0  0  0  0  0  0  0  0
    1.4896  -22.0095   24.8460 C   0  0  0  0  0  0  0  0  0  0  0  0
    0.6283  -21.4631   23.0847 C   0  0  0  0  0  0  0  0  0  0  0  0
    1.1991  -22.0209   22.1506 O   0  0  0  0  0  0  0  0  0  0  0  0
   -0.4862  -20.4045   22.9961 N   0  0  0  0  0  0  0  0  0  0  0  0
   -1.0559  -19.7517   21.9092 C   0  0  0  0  0  0  0  0  0  0  0  0
   -0.7933  -19.8144   20.5284 C   0  0  0  0  0  0  0  0  0  0  0  0
   -1.7857  -19.0695   19.9307 C   0  0  0  0  0  0  0  0  0  0  0  0
   -2.5461  -18.5789   20.9427 N   0  0  0  0  0  0  0  0  0  0  0  0
   -2.1196  -18.9547   22.1438 N   0  0  0  0  0  0  0  0  0  0  0  0
    1.8505  -21.4314   26.4660 C   0  0  0  0  0  0  0  0  0  0  0  0
    3.1973  -20.4741   26.4502 O   0  0  0  0  0  0  0  0  0  0  0  0
    4.9589  -25.6681   28.2732 H   0  0  0  0  0  0  0  0  0  0  0  0
    6.6241  -26.1421   28.5944 H   0  0  0  0  0  0  0  0  0  0  0  0
    6.1592  -25.8280   26.9236 H   0  0  0  0  0  0  0  0  0  0  0  0
    7.1925  -22.0151   27.9621 H   0  0  0  0  0  0  0  0  0  0  0  0
    5.6126  -19.9465   27.4167 H   0  0  0  0  0  0  0  0  0  0  0  0
    3.9115  -23.7876   27.4653 H   0  0  0  0  0  0  0  0  0  0  0  0
    3.5712  -23.0317   23.9592 H   0  0  0  0  0  0  0  0  0  0  0  0
   -0.7989  -20.2155   23.8781 H   0  0  0  0  0  0  0  0  0  0  0  0
   -0.0444  -20.3969   20.0165 H   0  0  0  0  0  0  0  0  0  0  0  0
   -2.0112  -18.8624   18.8952 H   0  0  0  0  0  0  0  0  0  0  0  0
   -3.3611  -17.9786   20.8867 H   0  0  0  0  0  0  0  0  0  0  0  0
    1.9610  -22.2661   27.1244 H   0  0  0  0  0  0  0  0  0  0  0  0
    1.1493  -20.7594   26.9481 H   0  0  0  0  0  0  0  0  0  0  0  0
  1  2  1  0
  2  3  1  0
  3  4  2  0
  4  5  1  0
  5  6  2  0
  6  7  1  0
  7  8  2  0
  7  9  1  0
  9 10  2  0
 10 11  1  0
 11 12  2  0
 11 13  1  0
 13 14  1  0
 14 15  1  0
 15 16  2  0
 16 17  1  0
 17 18  1  0
 10 19  1  0
 19 20  1  0
  8  3  1  0
 18 14  2  0
 20  6  1  0
  1 21  1  0
  1 22  1  0
  1 23  1  0
  4 24  1  0
  5 25  1  0
  8 26  1  0
  9 27  1  0
 13 28  1  0
 15 29  1  0
 16 30  1  0
 17 31  1  0
 19 32  1  0
 19 33  1  0
M  END
>  <Energy>  (215) 
305.55837244094192

>  <compound_id>  (215) 
9286

>  <target_id>  (215) 
1

>  <reference_id>  (215) 
96

>  <inspiration_ids>  (215) 
[89, 96]

>  <energy_score>  (215) 
286.98501880445417

>  <distance_score>  (215) 
8.77775747264896

>  <path>  (215) 
/opt/xchem-fragalysis-2/maxwin/BulkDock/SCRATCH/511020/C9286-P96/C9286-P96.minimised.mol

>  <scratch_subdir>  (215) 
/opt/xchem-fragalysis-2/maxwin/BulkDock/SCRATCH/511020/C9286-P96

>  <fragmenstein_runtime>  (215) 
11.679584264755249

>  <fragmenstein_outcome>  (215) 
too moved

>  <fragmenstein_mode>  (215) 
expansion

>  <fragmenstein_error>  (215) 


$$$$
C27411-P96
     RDKit          3D

 38 40  0  0  0  0  0  0  0  0999 V2000
    4.9970  -19.9542   25.6185 C   0  0  0  0  0  0  0  0  0  0  0  0
    4.9475  -19.8112   27.0432 O   0  0  0  0  0  0  0  0  0  0  0  0
    5.6431  -20.7319   27.7293 C   0  0  0  0  0  0  0  0  0  0  0  0
    5.8372  -22.0397   27.1028 C   0  0  0  0  0  0  0  0  0  0  0  0
    6.4336  -23.2082   27.7071 C   0  0  0  0  0  0  0  0  0  0  0  0
    6.9895  -23.2902   29.0237 C   0  0  0  0  0  0  0  0  0  0  0  0
    7.1021  -22.1237   29.8937 C   0  0  0  0  0  0  0  0  0  0  0  0
    6.2086  -20.5734   29.2109 C   0  0  0  0  0  0  0  0  0  0  0  0
    5.3535  -19.4965   30.4319 O   0  0  0  0  0  0  0  0  0  0  0  0
    4.6682  -19.5359   32.2793 C   0  0  0  0  0  0  0  0  0  0  0  0
    4.1761  -21.7480   32.3617 C   0  0  0  0  0  0  0  0  0  0  0  0
    2.4826  -22.5333   31.2476 C   0  0  0  0  0  0  0  0  0  0  0  0
    2.5114  -23.7882   31.3002 O   0  0  0  0  0  0  0  0  0  0  0  0
    0.9490  -21.9841   30.1464 O   0  0  0  0  0  0  0  0  0  0  0  0
   -0.7528  -21.5395   28.9462 C   0  0  0  0  0  0  0  0  0  0  0  0
   -2.9820  -21.8646   29.3310 C   0  0  0  0  0  0  0  0  0  0  0  0
   -4.9911  -22.4203   29.0078 C   0  0  0  0  0  0  0  0  0  0  0  0
   -6.7542  -23.4632   29.2479 C   0  0  0  0  0  0  0  0  0  0  0  0
   -7.9595  -22.5153   28.7516 N   0  0  0  0  0  0  0  0  0  0  0  0
   -7.0737  -21.4864   27.8884 N   0  0  0  0  0  0  0  0  0  0  0  0
   -5.6385  -21.6259   27.8182 C   0  0  0  0  0  0  0  0  0  0  0  0
    5.7701  -22.0790   31.5499 C   0  0  0  0  0  0  0  0  0  0  0  0
    4.1567  -20.5699   25.2918 H   0  0  0  0  0  0  0  0  0  0  0  0
    5.9445  -20.3616   25.2431 H   0  0  0  0  0  0  0  0  0  0  0  0
    4.9137  -18.9592   25.1749 H   0  0  0  0  0  0  0  0  0  0  0  0
    5.3982  -22.2460   26.1259 H   0  0  0  0  0  0  0  0  0  0  0  0
    6.3860  -24.1330   27.1258 H   0  0  0  0  0  0  0  0  0  0  0  0
    7.2693  -24.2862   29.3476 H   0  0  0  0  0  0  0  0  0  0  0  0
    5.5213  -19.0361   32.4939 H   0  0  0  0  0  0  0  0  0  0  0  0
    4.0169  -18.6357   32.1032 H   0  0  0  0  0  0  0  0  0  0  0  0
   -0.6580  -20.3824   29.0102 H   0  0  0  0  0  0  0  0  0  0  0  0
   -0.5390  -21.2348   27.9331 H   0  0  0  0  0  0  0  0  0  0  0  0
   -3.2376  -21.0788   30.0524 H   0  0  0  0  0  0  0  0  0  0  0  0
   -3.1880  -22.0124   28.2218 H   0  0  0  0  0  0  0  0  0  0  0  0
   -7.2282  -24.1225   29.9580 H   0  0  0  0  0  0  0  0  0  0  0  0
   -7.5128  -20.6345   27.6129 H   0  0  0  0  0  0  0  0  0  0  0  0
   -5.1175  -20.9229   27.1976 H   0  0  0  0  0  0  0  0  0  0  0  0
    6.6202  -21.8245   32.1171 H   0  0  0  0  0  0  0  0  0  0  0  0
  1  2  1  0
  2  3  1  0
  3  4  2  0
  4  5  1  0
  5  6  2  0
  6  7  1  0
  7  8  2  0
  8  9  1  0
  9 10  1  0
 10 11  1  0
 11 12  1  0
 12 13  2  0
 12 14  1  0
 14 15  1  0
 15 16  1  0
 16 17  1  0
 17 18  1  0
 18 19  2  0
 19 20  1  0
 20 21  1  0
 11 22  2  0
  8  3  1  0
 21 17  2  0
 22  7  1  0
  1 23  1  0
  1 24  1  0
  1 25  1  0
  4 26  1  0
  5 27  1  0
  6 28  1  0
 10 29  1  0
 10 30  1  0
 15 31  1  0
 15 32  1  0
 16 33  1  0
 16 34  1  0
 18 35  1  0
 20 36  1  0
 21 37  1  0
 22 38  1  0
M  END
>  <Energy>  (216) 
1901.920383560958

>  <compound_id>  (216) 
27411

>  <target_id>  (216) 
1

>  <reference_id>  (216) 
96

>  <inspiration_ids>  (216) 
[89, 96]

>  <energy_score>  (216) 
1832.9778070544141

>  <distance_score>  (216) 
3.9090794321852145

>  <path>  (216) 
/opt/xchem-fragalysis-2/maxwin/BulkDock/SCRATCH/511020/C27411-P96/C27411-P96.minimised.mol

>  <scratch_subdir>  (216) 
/opt/xchem-fragalysis-2/maxwin/BulkDock/SCRATCH/511020/C27411-P96

>  <fragmenstein_runtime>  (216) 
26.49553632736206

>  <fragmenstein_outcome>  (216) 
too moved

>  <fragmenstein_mode>  (216) 
expansion

>  <fragmenstein_error>  (216) 


$$$$
C46650-P96
     RDKit          3D

 39 42  0  0  0  0  0  0  0  0999 V2000
   -1.7329  -21.2531   33.2296 O   0  0  0  0  0  0  0  0  0  0  0  0
   -1.0424  -22.1734   33.1762 C   0  0  0  0  0  0  0  0  0  0  0  0
   -1.9759  -23.7595   33.5989 N   0  0  0  0  0  0  0  0  0  0  0  0
   -3.8370  -24.1381   33.9648 C   0  0  0  0  0  0  0  0  0  0  0  0
   -4.2404  -25.8784   33.9276 N   0  0  0  0  0  0  0  0  0  0  0  0
   -5.4379  -26.5179   33.3790 N   0  0  0  0  0  0  0  0  0  0  0  0
   -6.4240  -25.5988   33.4340 C   0  0  0  0  0  0  0  0  0  0  0  0
   -5.7716  -24.0708   33.5977 C   0  0  0  0  0  0  0  0  0  0  0  0
   -6.9669  -23.2353   32.7894 C   0  0  0  0  0  0  0  0  0  0  0  0
   -8.4006  -23.5165   33.2330 C   0  0  0  0  0  0  0  0  0  0  0  0
   -8.7656  -24.8854   32.7148 C   0  0  0  0  0  0  0  0  0  0  0  0
   -7.9065  -25.8764   33.4535 C   0  0  0  0  0  0  0  0  0  0  0  0
    0.9675  -21.5638   32.5450 C   0  0  0  0  0  0  0  0  0  0  0  0
    2.0323  -21.5959   31.1642 C   0  0  0  0  0  0  0  0  0  0  0  0
    3.0682  -19.9253   29.9549 C   0  0  0  0  0  0  0  0  0  0  0  0
    2.6016  -22.1193   30.2351 C   0  0  0  0  0  0  0  0  0  0  0  0
    3.6238  -22.8492   28.7074 C   0  0  0  0  0  0  0  0  0  0  0  0
    4.5446  -21.3267   27.8381 C   0  0  0  0  0  0  0  0  0  0  0  0
    4.5566  -19.6510   28.8650 C   0  0  0  0  0  0  0  0  0  0  0  0
    3.7217  -18.7013   30.3220 C   0  0  0  0  0  0  0  0  0  0  0  0
    2.4628  -18.3212   31.7896 O   0  0  0  0  0  0  0  0  0  0  0  0
    1.3697  -19.6221   33.0372 C   0  0  0  0  0  0  0  0  0  0  0  0
   -1.3184  -24.4976   33.6168 H   0  0  0  0  0  0  0  0  0  0  0  0
   -4.4028  -25.9818   34.8995 H   0  0  0  0  0  0  0  0  0  0  0  0
   -6.9501  -22.1696   32.7033 H   0  0  0  0  0  0  0  0  0  0  0  0
   -6.9450  -23.5583   31.7506 H   0  0  0  0  0  0  0  0  0  0  0  0
   -8.5087  -23.4391   34.3205 H   0  0  0  0  0  0  0  0  0  0  0  0
   -9.0763  -22.7796   32.7823 H   0  0  0  0  0  0  0  0  0  0  0  0
   -9.8217  -25.0823   32.8913 H   0  0  0  0  0  0  0  0  0  0  0  0
   -8.6179  -24.9623   31.6315 H   0  0  0  0  0  0  0  0  0  0  0  0
   -8.1670  -26.8683   33.1465 H   0  0  0  0  0  0  0  0  0  0  0  0
   -8.2492  -25.8420   34.4918 H   0  0  0  0  0  0  0  0  0  0  0  0
    2.8009  -21.8825   32.0681 H   0  0  0  0  0  0  0  0  0  0  0  0
    3.1799  -23.0309   30.8414 H   0  0  0  0  0  0  0  0  0  0  0  0
    4.0649  -23.8429   28.6689 H   0  0  0  0  0  0  0  0  0  0  0  0
    5.3415  -21.5192   27.1173 H   0  0  0  0  0  0  0  0  0  0  0  0
    5.4165  -19.1385   28.4063 H   0  0  0  0  0  0  0  0  0  0  0  0
    2.0089  -19.5479   33.8899 H   0  0  0  0  0  0  0  0  0  0  0  0
    0.4809  -19.1170   33.4741 H   0  0  0  0  0  0  0  0  0  0  0  0
  1  2  2  0
  2  3  1  0
  3  4  1  0
  4  5  1  0
  5  6  1  0
  6  7  2  0
  7  8  1  0
  8  9  1  0
  9 10  1  0
 10 11  1  0
 11 12  1  0
  2 13  1  0
 13 14  2  0
 14 15  1  0
 15 16  2  0
 16 17  1  0
 17 18  2  0
 18 19  1  0
 19 20  2  0
 20 21  1  0
 21 22  1  0
  8  4  2  0
 22 13  1  0
 12  7  1  0
 20 15  1  0
  3 23  1  0
  5 24  1  0
  9 25  1  0
  9 26  1  0
 10 27  1  0
 10 28  1  0
 11 29  1  0
 11 30  1  0
 12 31  1  0
 12 32  1  0
 14 33  1  0
 16 34  1  0
 17 35  1  0
 18 36  1  0
 19 37  1  0
 22 38  1  0
 22 39  1  0
M  END
>  <Energy>  (217) 
2524.9143957910601

>  <compound_id>  (217) 
46650

>  <target_id>  (217) 
1

>  <reference_id>  (217) 
96

>  <inspiration_ids>  (217) 
[89, 96]

>  <energy_score>  (217) 
2433.1979245845487

>  <distance_score>  (217) 
3.032486980661339

>  <path>  (217) 
/opt/xchem-fragalysis-2/maxwin/BulkDock/SCRATCH/511020/C46650-P96/C46650-P96.minimised.mol

>  <scratch_subdir>  (217) 
/opt/xchem-fragalysis-2/maxwin/BulkDock/SCRATCH/511020/C46650-P96

>  <fragmenstein_runtime>  (217) 
17.753180742263794

>  <fragmenstein_outcome>  (217) 
too moved

>  <fragmenstein_mode>  (217) 
expansion

>  <fragmenstein_error>  (217) 


$$$$
C27401-P96
     RDKit          3D

 39 41  0  0  0  0  0  0  0  0999 V2000
    5.5526  -22.4682   24.3249 C   0  0  0  0  0  0  0  0  0  0  0  0
    6.0023  -21.4766   25.3850 C   0  0  0  0  0  0  0  0  0  0  0  0
    4.9485  -20.4894   25.8938 C   0  0  0  0  0  0  0  0  0  0  0  0
    5.2431  -19.9346   27.1974 O   0  0  0  0  0  0  0  0  0  0  0  0
    5.3240  -20.8173   28.2042 C   0  0  0  0  0  0  0  0  0  0  0  0
    4.4631  -22.5120   27.9284 C   0  0  0  0  0  0  0  0  0  0  0  0
    3.4253  -23.3293   29.3154 C   0  0  0  0  0  0  0  0  0  0  0  0
    3.1138  -22.9338   31.0484 C   0  0  0  0  0  0  0  0  0  0  0  0
    4.8513  -22.1621   31.2456 C   0  0  0  0  0  0  0  0  0  0  0  0
    5.5499  -20.4664   30.1311 C   0  0  0  0  0  0  0  0  0  0  0  0
    3.1737  -22.3606   32.0073 O   0  0  0  0  0  0  0  0  0  0  0  0
    1.6067  -23.6242   32.1768 C   0  0  0  0  0  0  0  0  0  0  0  0
   -0.2681  -23.1889   33.0827 C   0  0  0  0  0  0  0  0  0  0  0  0
   -2.1815  -22.7765   33.2923 C   0  0  0  0  0  0  0  0  0  0  0  0
   -2.3687  -21.6602   32.9160 O   0  0  0  0  0  0  0  0  0  0  0  0
   -3.6879  -23.9694   33.7166 N   0  0  0  0  0  0  0  0  0  0  0  0
   -5.7417  -23.7883   33.4432 C   0  0  0  0  0  0  0  0  0  0  0  0
   -6.8148  -25.0883   33.5915 C   0  0  0  0  0  0  0  0  0  0  0  0
   -8.1144  -24.7912   33.5104 N   0  0  0  0  0  0  0  0  0  0  0  0
   -8.0504  -23.4935   33.2232 N   0  0  0  0  0  0  0  0  0  0  0  0
   -6.8037  -23.1995   32.6572 C   0  0  0  0  0  0  0  0  0  0  0  0
    1.3669  -22.5437   32.2725 C   0  0  0  0  0  0  0  0  0  0  0  0
    6.1850  -23.3623   24.3651 H   0  0  0  0  0  0  0  0  0  0  0  0
    4.5201  -22.7832   24.4762 H   0  0  0  0  0  0  0  0  0  0  0  0
    5.6588  -22.0732   23.3153 H   0  0  0  0  0  0  0  0  0  0  0  0
    6.8513  -20.9030   25.0032 H   0  0  0  0  0  0  0  0  0  0  0  0
    6.3677  -22.0765   26.2180 H   0  0  0  0  0  0  0  0  0  0  0  0
    3.9371  -20.9043   25.8883 H   0  0  0  0  0  0  0  0  0  0  0  0
    4.9193  -19.6318   25.2178 H   0  0  0  0  0  0  0  0  0  0  0  0
    4.1852  -22.7856   26.9140 H   0  0  0  0  0  0  0  0  0  0  0  0
    2.3745  -23.4155   29.0562 H   0  0  0  0  0  0  0  0  0  0  0  0
    5.2010  -19.4015   30.3074 H   0  0  0  0  0  0  0  0  0  0  0  0
    1.4807  -24.1807   31.1483 H   0  0  0  0  0  0  0  0  0  0  0  0
    2.1821  -24.4522   32.6890 H   0  0  0  0  0  0  0  0  0  0  0  0
   -3.3343  -24.8360   34.0939 H   0  0  0  0  0  0  0  0  0  0  0  0
   -6.5036  -26.1072   33.8068 H   0  0  0  0  0  0  0  0  0  0  0  0
   -8.9239  -23.0206   33.0244 H   0  0  0  0  0  0  0  0  0  0  0  0
   -6.9342  -23.2708   31.5954 H   0  0  0  0  0  0  0  0  0  0  0  0
    1.3369  -21.4498   32.2943 H   0  0  0  0  0  0  0  0  0  0  0  0
  1  2  1  0
  2  3  1  0
  3  4  1  0
  4  5  1  0
  5  6  2  0
  6  7  1  0
  7  8  2  0
  8  9  1  0
  9 10  2  0
  9 11  1  0
 11 12  1  0
 12 13  1  0
 13 14  1  0
 14 15  2  0
 14 16  1  0
 16 17  1  0
 17 18  1  0
 18 19  2  0
 19 20  1  0
 20 21  1  0
 13 22  2  0
 10  5  1  0
 21 17  2  0
 22  8  1  0
  1 23  1  0
  1 24  1  0
  1 25  1  0
  2 26  1  0
  2 27  1  0
  3 28  1  0
  3 29  1  0
  6 30  1  0
  7 31  1  0
 10 32  1  0
 12 33  1  0
 12 34  1  0
 16 35  1  0
 18 36  1  0
 20 37  1  0
 21 38  1  0
 22 39  1  0
M  END
>  <Energy>  (218) 
2263.8626572188059

>  <compound_id>  (218) 
27401

>  <target_id>  (218) 
1

>  <reference_id>  (218) 
96

>  <inspiration_ids>  (218) 
[89, 96]

>  <energy_score>  (218) 
2209.865015459211

>  <distance_score>  (218) 
4.646371441237279

>  <path>  (218) 
/opt/xchem-fragalysis-2/maxwin/BulkDock/SCRATCH/511020/C27401-P96/C27401-P96.minimised.mol

>  <scratch_subdir>  (218) 
/opt/xchem-fragalysis-2/maxwin/BulkDock/SCRATCH/511020/C27401-P96

>  <fragmenstein_runtime>  (218) 
19.400904178619385

>  <fragmenstein_outcome>  (218) 
too moved

>  <fragmenstein_mode>  (218) 
expansion

>  <fragmenstein_error>  (218) 


$$$$
C62905-P24
     RDKit          3D

 42 44  0  0  0  0  0  0  0  0999 V2000
   -7.4155   -2.6477    4.7896 O   0  0  0  0  0  0  0  0  0  0  0  0
   -7.2290   -2.2373    5.9311 C   0  0  0  0  0  0  0  0  0  0  0  0
   -5.9930   -2.5916    6.7789 C   0  0  0  0  0  0  0  0  0  0  0  0
   -5.5114   -1.4555    7.6531 N   0  0  0  0  0  0  0  0  0  0  0  0
   -4.7044   -0.5934    6.8045 C   0  0  0  0  0  0  0  0  0  0  0  0
   -5.4331    0.3773    6.0443 C   0  0  0  0  0  0  0  0  0  0  0  0
   -5.1228    0.6513    4.7305 C   0  0  0  0  0  0  0  0  0  0  0  0
   -4.1127   -0.0789    4.1638 C   0  0  0  0  0  0  0  0  0  0  0  0
   -3.3072   -0.9274    4.9567 C   0  0  0  0  0  0  0  0  0  0  0  0
   -3.4349   -1.0584    6.3388 C   0  0  0  0  0  0  0  0  0  0  0  0
   -2.2521   -1.2114    7.2465 N   0  0  0  0  0  0  0  0  0  0  0  0
   -2.0051   -0.7372    8.6762 C   0  0  0  0  0  0  0  0  0  0  0  0
   -2.8183   -0.1998    9.3599 O   0  0  0  0  0  0  0  0  0  0  0  0
   -0.1199   -0.8519    9.7148 C   0  0  0  0  0  0  0  0  0  0  0  0
    1.5263    0.3844    9.2457 C   0  0  0  0  0  0  0  0  0  0  0  0
    2.6825    1.4552    9.9355 C   0  0  0  0  0  0  0  0  0  0  0  0
    2.8835    1.7604   11.2112 N   0  0  0  0  0  0  0  0  0  0  0  0
    3.8184    2.7549   11.2119 C   0  0  0  0  0  0  0  0  0  0  0  0
    4.3077    2.9480    9.9445 C   0  0  0  0  0  0  0  0  0  0  0  0
    3.6603    2.0363    9.1576 N   0  0  0  0  0  0  0  0  0  0  0  0
   -6.6220   -0.7594    8.3761 C   0  0  0  0  0  0  0  0  0  0  0  0
   -8.0374   -1.2275    7.9728 C   0  0  0  0  0  0  0  0  0  0  0  0
   -8.1692   -1.4528    6.5568 N   0  0  0  0  0  0  0  0  0  0  0  0
   -5.2044   -2.9702    6.1193 H   0  0  0  0  0  0  0  0  0  0  0  0
   -6.2886   -3.4379    7.4011 H   0  0  0  0  0  0  0  0  0  0  0  0
   -6.3622    0.8104    6.3999 H   0  0  0  0  0  0  0  0  0  0  0  0
   -5.7269    1.3349    4.1436 H   0  0  0  0  0  0  0  0  0  0  0  0
   -3.8930    0.0551    3.1079 H   0  0  0  0  0  0  0  0  0  0  0  0
   -2.4598   -1.3373    4.4351 H   0  0  0  0  0  0  0  0  0  0  0  0
   -1.4021   -1.5409    6.8816 H   0  0  0  0  0  0  0  0  0  0  0  0
   -0.3249   -0.9321   10.7749 H   0  0  0  0  0  0  0  0  0  0  0  0
    0.4965   -1.7162    9.5689 H   0  0  0  0  0  0  0  0  0  0  0  0
    1.8674    0.5412    8.2007 H   0  0  0  0  0  0  0  0  0  0  0  0
    2.1059   -0.1832    9.9661 H   0  0  0  0  0  0  0  0  0  0  0  0
    4.1139    3.2420   12.1311 H   0  0  0  0  0  0  0  0  0  0  0  0
    5.0761    3.5835    9.5522 H   0  0  0  0  0  0  0  0  0  0  0  0
    3.8493    1.8262    8.1827 H   0  0  0  0  0  0  0  0  0  0  0  0
   -6.5517    0.3322    8.3198 H   0  0  0  0  0  0  0  0  0  0  0  0
   -6.5206   -0.9404    9.4378 H   0  0  0  0  0  0  0  0  0  0  0  0
   -8.2752   -2.1779    8.4619 H   0  0  0  0  0  0  0  0  0  0  0  0
   -8.7872   -0.4921    8.2799 H   0  0  0  0  0  0  0  0  0  0  0  0
   -9.0645   -1.3850    6.0891 H   0  0  0  0  0  0  0  0  0  0  0  0
  1  2  2  0
  2  3  1  0
  3  4  1  0
  4  5  1  0
  5  6  2  0
  6  7  1  0
  7  8  2  0
  8  9  1  0
  9 10  2  0
 10 11  1  0
 11 12  1  0
 12 13  2  0
 12 14  1  0
 14 15  1  0
 15 16  1  0
 16 17  2  0
 17 18  1  0
 18 19  2  0
 19 20  1  0
  4 21  1  0
 21 22  1  0
 22 23  1  0
 23  2  1  0
 10  5  1  0
 20 16  1  0
  3 24  1  0
  3 25  1  0
  6 26  1  0
  7 27  1  0
  8 28  1  0
  9 29  1  0
 11 30  1  0
 14 31  1  0
 14 32  1  0
 15 33  1  0
 15 34  1  0
 18 35  1  0
 19 36  1  0
 20 37  1  0
 21 38  1  0
 21 39  1  0
 22 40  1  0
 22 41  1  0
 23 42  1  0
M  END
>  <Energy>  (219) 
419.95607640367479

>  <compound_id>  (219) 
62905

>  <target_id>  (219) 
1

>  <reference_id>  (219) 
24

>  <inspiration_ids>  (219) 
[24, 63]

>  <energy_score>  (219) 
299.0049770849672

>  <distance_score>  (219) 
6.18564195981758

>  <path>  (219) 
/opt/xchem-fragalysis-2/maxwin/BulkDock/SCRATCH/511020/C62905-P24/C62905-P24.minimised.mol

>  <scratch_subdir>  (219) 
/opt/xchem-fragalysis-2/maxwin/BulkDock/SCRATCH/511020/C62905-P24

>  <fragmenstein_runtime>  (219) 
10.660175561904907

>  <fragmenstein_outcome>  (219) 
too moved

>  <fragmenstein_mode>  (219) 
expansion

>  <fragmenstein_error>  (219) 


$$$$
C62905-P63
     RDKit          3D

 42 44  0  0  0  0  0  0  0  0999 V2000
   -8.9977   -0.3707    6.1608 O   0  0  0  0  0  0  0  0  0  0  0  0
   -8.3926   -1.4383    6.1194 C   0  0  0  0  0  0  0  0  0  0  0  0
   -6.9250   -1.5866    5.6615 C   0  0  0  0  0  0  0  0  0  0  0  0
   -6.0436   -2.6936    6.3806 N   0  0  0  0  0  0  0  0  0  0  0  0
   -5.4784   -2.1602    7.6799 C   0  0  0  0  0  0  0  0  0  0  0  0
   -6.6407   -1.5617    8.3365 C   0  0  0  0  0  0  0  0  0  0  0  0
   -6.7883   -0.2058    8.4593 C   0  0  0  0  0  0  0  0  0  0  0  0
   -5.6926    0.5179    8.1466 C   0  0  0  0  0  0  0  0  0  0  0  0
   -4.4564   -0.1551    8.1553 C   0  0  0  0  0  0  0  0  0  0  0  0
   -4.1862   -1.5181    7.9115 C   0  0  0  0  0  0  0  0  0  0  0  0
   -2.6479   -1.7847    8.4466 N   0  0  0  0  0  0  0  0  0  0  0  0
   -1.4327   -0.7124    9.2286 C   0  0  0  0  0  0  0  0  0  0  0  0
   -1.8315    0.3587    9.2632 O   0  0  0  0  0  0  0  0  0  0  0  0
    0.6822   -0.7970   10.0643 C   0  0  0  0  0  0  0  0  0  0  0  0
    2.6208    0.2245   10.4283 C   0  0  0  0  0  0  0  0  0  0  0  0
    4.5700   -0.1930   10.9560 C   0  0  0  0  0  0  0  0  0  0  0  0
    5.2932   -0.8188   12.0202 N   0  0  0  0  0  0  0  0  0  0  0  0
    6.5916   -1.2100   12.3478 C   0  0  0  0  0  0  0  0  0  0  0  0
    7.1076   -1.0136   11.1721 C   0  0  0  0  0  0  0  0  0  0  0  0
    6.2091   -0.3003   10.4101 N   0  0  0  0  0  0  0  0  0  0  0  0
   -6.9022   -3.9186    6.5860 C   0  0  0  0  0  0  0  0  0  0  0  0
   -8.3610   -3.8368    6.0898 C   0  0  0  0  0  0  0  0  0  0  0  0
   -9.0164   -2.6147    6.4456 N   0  0  0  0  0  0  0  0  0  0  0  0
   -6.4320   -0.6111    5.6936 H   0  0  0  0  0  0  0  0  0  0  0  0
   -7.0328   -1.8726    4.6079 H   0  0  0  0  0  0  0  0  0  0  0  0
   -7.5567   -2.1397    8.4541 H   0  0  0  0  0  0  0  0  0  0  0  0
   -7.7430    0.2475    8.7011 H   0  0  0  0  0  0  0  0  0  0  0  0
   -5.7636    1.5970    8.1182 H   0  0  0  0  0  0  0  0  0  0  0  0
   -3.6596    0.4793    8.4888 H   0  0  0  0  0  0  0  0  0  0  0  0
   -2.2401   -2.6667    8.3601 H   0  0  0  0  0  0  0  0  0  0  0  0
    1.1000   -1.7404    9.7098 H   0  0  0  0  0  0  0  0  0  0  0  0
    0.4827   -0.9751   11.0993 H   0  0  0  0  0  0  0  0  0  0  0  0
    2.7616    0.6162   11.5061 H   0  0  0  0  0  0  0  0  0  0  0  0
    2.6801    1.1495    9.8014 H   0  0  0  0  0  0  0  0  0  0  0  0
    6.8713   -1.7892   13.2120 H   0  0  0  0  0  0  0  0  0  0  0  0
    7.7947   -1.5699   10.6268 H   0  0  0  0  0  0  0  0  0  0  0  0
    6.3946    0.4669    9.8034 H   0  0  0  0  0  0  0  0  0  0  0  0
   -6.9224   -4.2390    7.6260 H   0  0  0  0  0  0  0  0  0  0  0  0
   -6.4643   -4.7232    6.0086 H   0  0  0  0  0  0  0  0  0  0  0  0
   -8.3839   -3.8933    4.9961 H   0  0  0  0  0  0  0  0  0  0  0  0
   -8.9468   -4.6675    6.4931 H   0  0  0  0  0  0  0  0  0  0  0  0
  -10.0105   -2.5705    6.6403 H   0  0  0  0  0  0  0  0  0  0  0  0
  1  2  2  0
  2  3  1  0
  3  4  1  0
  4  5  1  0
  5  6  2  0
  6  7  1  0
  7  8  2  0
  8  9  1  0
  9 10  2  0
 10 11  1  0
 11 12  1  0
 12 13  2  0
 12 14  1  0
 14 15  1  0
 15 16  1  0
 16 17  2  0
 17 18  1  0
 18 19  2  0
 19 20  1  0
  4 21  1  0
 21 22  1  0
 22 23  1  0
 23  2  1  0
 10  5  1  0
 20 16  1  0
  3 24  1  0
  3 25  1  0
  6 26  1  0
  7 27  1  0
  8 28  1  0
  9 29  1  0
 11 30  1  0
 14 31  1  0
 14 32  1  0
 15 33  1  0
 15 34  1  0
 18 35  1  0
 19 36  1  0
 20 37  1  0
 21 38  1  0
 21 39  1  0
 22 40  1  0
 22 41  1  0
 23 42  1  0
M  END
>  <Energy>  (220) 
913.92184306308457

>  <compound_id>  (220) 
62905

>  <target_id>  (220) 
1

>  <reference_id>  (220) 
63

>  <inspiration_ids>  (220) 
[24, 63]

>  <energy_score>  (220) 
792.9707437443707

>  <distance_score>  (220) 
4.654243223321027

>  <path>  (220) 
/opt/xchem-fragalysis-2/maxwin/BulkDock/SCRATCH/511020/C62905-P63/C62905-P63.minimised.mol

>  <scratch_subdir>  (220) 
/opt/xchem-fragalysis-2/maxwin/BulkDock/SCRATCH/511020/C62905-P63

>  <fragmenstein_runtime>  (220) 
9.571958780288696

>  <fragmenstein_outcome>  (220) 
too moved

>  <fragmenstein_mode>  (220) 
expansion

>  <fragmenstein_error>  (220) 


$$$$
C62917-P24
     RDKit          3D

 43 44  0  0  0  0  0  0  0  0999 V2000
   -6.6435    0.8116    4.8456 C   0  0  0  0  0  0  0  0  0  0  0  0
   -5.5222    0.1320    5.6569 C   0  0  0  0  0  0  0  0  0  0  0  0
   -5.4086    0.8763    6.9957 C   0  0  0  0  0  0  0  0  0  0  0  0
   -4.2358    0.2685    4.8444 C   0  0  0  0  0  0  0  0  0  0  0  0
   -5.8524   -1.3738    5.8118 C   0  0  0  0  0  0  0  0  0  0  0  0
   -5.3081   -2.1313    7.0306 C   0  0  0  0  0  0  0  0  0  0  0  0
   -3.8810   -2.4907    7.1150 N   0  0  0  0  0  0  0  0  0  0  0  0
   -3.0218   -1.7466    7.9613 C   0  0  0  0  0  0  0  0  0  0  0  0
   -1.5542   -2.4998    8.1659 C   0  0  0  0  0  0  0  0  0  0  0  0
   -0.0381   -4.4938    8.1302 N   0  0  0  0  0  0  0  0  0  0  0  0
    1.9566   -3.7029    8.6523 S   0  0  0  0  0  0  0  0  0  0  0  0
    1.2611   -2.5028    8.1428 O   0  0  0  0  0  0  0  0  0  0  0  0
    2.4352   -4.2521    9.9604 O   0  0  0  0  0  0  0  0  0  0  0  0
    3.0821   -2.9725   10.7562 C   0  0  0  0  0  0  0  0  0  0  0  0
    3.8767   -3.7034   11.8149 N   0  0  0  0  0  0  0  0  0  0  0  0
    5.2236   -2.9048   12.5290 C   0  0  0  0  0  0  0  0  0  0  0  0
    5.6180   -1.5270   12.1180 C   0  0  0  0  0  0  0  0  0  0  0  0
    3.9549   -1.3999   11.3859 N   0  0  0  0  0  0  0  0  0  0  0  0
   -2.0848   -4.7257    6.9831 C   0  0  0  0  0  0  0  0  0  0  0  0
   -3.3673   -3.5845    6.4813 C   0  0  0  0  0  0  0  0  0  0  0  0
   -3.9801   -3.8185    5.4417 O   0  0  0  0  0  0  0  0  0  0  0  0
   -6.7940    0.3134    3.8808 H   0  0  0  0  0  0  0  0  0  0  0  0
   -7.5969    0.7820    5.3856 H   0  0  0  0  0  0  0  0  0  0  0  0
   -6.4096    1.8632    4.6434 H   0  0  0  0  0  0  0  0  0  0  0  0
   -4.5591    0.5451    7.5928 H   0  0  0  0  0  0  0  0  0  0  0  0
   -5.2769    1.9530    6.8357 H   0  0  0  0  0  0  0  0  0  0  0  0
   -6.3154    0.7440    7.5967 H   0  0  0  0  0  0  0  0  0  0  0  0
   -3.4533   -0.3608    5.2659 H   0  0  0  0  0  0  0  0  0  0  0  0
   -4.3791   -0.0568    3.8075 H   0  0  0  0  0  0  0  0  0  0  0  0
   -3.8918    1.3073    4.8170 H   0  0  0  0  0  0  0  0  0  0  0  0
   -6.9460   -1.4624    5.8872 H   0  0  0  0  0  0  0  0  0  0  0  0
   -5.5889   -1.9073    4.8911 H   0  0  0  0  0  0  0  0  0  0  0  0
   -5.8481   -3.0881    7.0560 H   0  0  0  0  0  0  0  0  0  0  0  0
   -5.5929   -1.6146    7.9533 H   0  0  0  0  0  0  0  0  0  0  0  0
   -2.8705   -0.7445    7.5306 H   0  0  0  0  0  0  0  0  0  0  0  0
   -3.5383   -1.4889    8.8949 H   0  0  0  0  0  0  0  0  0  0  0  0
   -1.6209   -1.9231    7.0198 H   0  0  0  0  0  0  0  0  0  0  0  0
   -2.6094   -3.0093    8.5932 H   0  0  0  0  0  0  0  0  0  0  0  0
    5.6847   -3.0318   13.5082 H   0  0  0  0  0  0  0  0  0  0  0  0
    6.1768   -0.6648   12.3584 H   0  0  0  0  0  0  0  0  0  0  0  0
    3.8611   -0.4786   10.9584 H   0  0  0  0  0  0  0  0  0  0  0  0
   -3.1408   -5.0217    7.5136 H   0  0  0  0  0  0  0  0  0  0  0  0
   -2.3410   -5.6582    6.3496 H   0  0  0  0  0  0  0  0  0  0  0  0
  1  2  1  0
  2  3  1  0
  2  4  1  0
  2  5  1  0
  5  6  1  0
  6  7  1  0
  7  8  1  0
  8  9  1  0
  9 10  1  0
 10 11  1  0
 11 12  2  0
 11 13  2  0
 11 14  1  0
 14 15  2  0
 15 16  1  0
 16 17  2  0
 17 18  1  0
 10 19  1  0
 19 20  1  0
 20 21  2  0
 20  7  1  0
 18 14  1  0
  1 22  1  0
  1 23  1  0
  1 24  1  0
  3 25  1  0
  3 26  1  0
  3 27  1  0
  4 28  1  0
  4 29  1  0
  4 30  1  0
  5 31  1  0
  5 32  1  0
  6 33  1  0
  6 34  1  0
  8 35  1  0
  8 36  1  0
  9 37  1  0
  9 38  1  0
 16 39  1  0
 17 40  1  0
 18 41  1  0
 19 42  1  0
 19 43  1  0
M  END
>  <Energy>  (221) 
1789.4921056002497

>  <compound_id>  (221) 
62917

>  <target_id>  (221) 
1

>  <reference_id>  (221) 
24

>  <inspiration_ids>  (221) 
[24, 63]

>  <energy_score>  (221) 
1692.8625843860436

>  <distance_score>  (221) 
5.833358471479879

>  <path>  (221) 
/opt/xchem-fragalysis-2/maxwin/BulkDock/SCRATCH/511020/C62917-P24/C62917-P24.minimised.mol

>  <scratch_subdir>  (221) 
/opt/xchem-fragalysis-2/maxwin/BulkDock/SCRATCH/511020/C62917-P24

>  <fragmenstein_runtime>  (221) 
13.18146300315857

>  <fragmenstein_outcome>  (221) 
too moved

>  <fragmenstein_mode>  (221) 
expansion

>  <fragmenstein_error>  (221) 


$$$$
C62917-P63
     RDKit          3D

 43 44  0  0  0  0  0  0  0  0999 V2000
   -6.5849   -0.0977    6.3093 C   0  0  0  0  0  0  0  0  0  0  0  0
   -6.2536   -0.8712    7.6080 C   0  0  0  0  0  0  0  0  0  0  0  0
   -7.2088   -0.2464    8.6501 C   0  0  0  0  0  0  0  0  0  0  0  0
   -4.8476   -0.5549    8.0791 C   0  0  0  0  0  0  0  0  0  0  0  0
   -6.5647   -2.3982    7.4487 C   0  0  0  0  0  0  0  0  0  0  0  0
   -5.5432   -3.5954    7.2072 C   0  0  0  0  0  0  0  0  0  0  0  0
   -4.3362   -4.2751    8.1850 N   0  0  0  0  0  0  0  0  0  0  0  0
   -3.1674   -3.5319    8.1985 C   0  0  0  0  0  0  0  0  0  0  0  0
   -3.0364   -4.3275    9.4056 C   0  0  0  0  0  0  0  0  0  0  0  0
   -1.9516   -5.4886   10.5397 N   0  0  0  0  0  0  0  0  0  0  0  0
   -1.2622   -5.2547   12.7980 S   0  0  0  0  0  0  0  0  0  0  0  0
   -1.6313   -3.9351   13.2053 O   0  0  0  0  0  0  0  0  0  0  0  0
   -1.3778   -6.4904   13.5386 O   0  0  0  0  0  0  0  0  0  0  0  0
    1.0039   -5.0599   13.5757 C   0  0  0  0  0  0  0  0  0  0  0  0
    1.7009   -4.0081   14.0391 N   0  0  0  0  0  0  0  0  0  0  0  0
    2.8667   -3.8441   13.3464 C   0  0  0  0  0  0  0  0  0  0  0  0
    3.0563   -4.5279   12.2202 C   0  0  0  0  0  0  0  0  0  0  0  0
    2.1432   -5.4350   12.4876 N   0  0  0  0  0  0  0  0  0  0  0  0
   -2.7227   -6.6200    9.7185 C   0  0  0  0  0  0  0  0  0  0  0  0
   -4.2860   -5.6882    9.5481 C   0  0  0  0  0  0  0  0  0  0  0  0
   -5.1182   -6.2137   10.4212 O   0  0  0  0  0  0  0  0  0  0  0  0
   -6.3423   -0.6639    5.4167 H   0  0  0  0  0  0  0  0  0  0  0  0
   -7.6610    0.1037    6.2305 H   0  0  0  0  0  0  0  0  0  0  0  0
   -6.0692    0.8676    6.2643 H   0  0  0  0  0  0  0  0  0  0  0  0
   -8.2480   -0.5507    8.4807 H   0  0  0  0  0  0  0  0  0  0  0  0
   -6.9316   -0.5240    9.6646 H   0  0  0  0  0  0  0  0  0  0  0  0
   -7.1802    0.8494    8.6105 H   0  0  0  0  0  0  0  0  0  0  0  0
   -4.6262   -1.0249    9.0345 H   0  0  0  0  0  0  0  0  0  0  0  0
   -4.0906   -0.8530    7.3603 H   0  0  0  0  0  0  0  0  0  0  0  0
   -4.7357    0.5179    8.2455 H   0  0  0  0  0  0  0  0  0  0  0  0
   -7.3204   -2.6829    8.1881 H   0  0  0  0  0  0  0  0  0  0  0  0
   -7.1850   -2.4536    6.5375 H   0  0  0  0  0  0  0  0  0  0  0  0
   -4.9994   -3.3629    6.2941 H   0  0  0  0  0  0  0  0  0  0  0  0
   -6.2279   -4.4144    6.9555 H   0  0  0  0  0  0  0  0  0  0  0  0
   -3.2269   -2.4569    8.3132 H   0  0  0  0  0  0  0  0  0  0  0  0
   -2.7162   -3.8546    7.3013 H   0  0  0  0  0  0  0  0  0  0  0  0
   -3.6914   -4.2398   10.2592 H   0  0  0  0  0  0  0  0  0  0  0  0
   -3.1152   -5.2980    8.4716 H   0  0  0  0  0  0  0  0  0  0  0  0
    3.6128   -3.1596   13.5852 H   0  0  0  0  0  0  0  0  0  0  0  0
    3.8099   -4.5592   11.4520 H   0  0  0  0  0  0  0  0  0  0  0  0
    2.0484   -6.2817   11.9407 H   0  0  0  0  0  0  0  0  0  0  0  0
   -1.9984   -6.9812    8.9973 H   0  0  0  0  0  0  0  0  0  0  0  0
   -3.2344   -7.5455    9.8913 H   0  0  0  0  0  0  0  0  0  0  0  0
  1  2  1  0
  2  3  1  0
  2  4  1  0
  2  5  1  0
  5  6  1  0
  6  7  1  0
  7  8  1  0
  8  9  1  0
  9 10  1  0
 10 11  1  0
 11 12  2  0
 11 13  2  0
 11 14  1  0
 14 15  2  0
 15 16  1  0
 16 17  2  0
 17 18  1  0
 10 19  1  0
 19 20  1  0
 20 21  2  0
 20  7  1  0
 18 14  1  0
  1 22  1  0
  1 23  1  0
  1 24  1  0
  3 25  1  0
  3 26  1  0
  3 27  1  0
  4 28  1  0
  4 29  1  0
  4 30  1  0
  5 31  1  0
  5 32  1  0
  6 33  1  0
  6 34  1  0
  8 35  1  0
  8 36  1  0
  9 37  1  0
  9 38  1  0
 16 39  1  0
 17 40  1  0
 18 41  1  0
 19 42  1  0
 19 43  1  0
M  END
>  <Energy>  (222) 
910.96630361107304

>  <compound_id>  (222) 
62917

>  <target_id>  (222) 
1

>  <reference_id>  (222) 
63

>  <inspiration_ids>  (222) 
[24, 63]

>  <energy_score>  (222) 
814.3367823968342

>  <distance_score>  (222) 
6.71656174187117

>  <path>  (222) 
/opt/xchem-fragalysis-2/maxwin/BulkDock/SCRATCH/511020/C62917-P63/C62917-P63.minimised.mol

>  <scratch_subdir>  (222) 
/opt/xchem-fragalysis-2/maxwin/BulkDock/SCRATCH/511020/C62917-P63

>  <fragmenstein_runtime>  (222) 
14.464550733566284

>  <fragmenstein_outcome>  (222) 
too moved

>  <fragmenstein_mode>  (222) 
expansion

>  <fragmenstein_error>  (222) 


$$$$
C62944-P24
     RDKit          3D

 48 49  0  0  0  0  0  0  0  0999 V2000
    4.3154    2.4657    9.0057 C   0  0  0  0  0  0  0  0  0  0  0  0
    4.4863    3.7414    9.6891 N   0  0  0  0  0  0  0  0  0  0  0  0
    3.5240    4.7487    9.2679 C   0  0  0  0  0  0  0  0  0  0  0  0
    2.1331    4.5417    9.8956 C   0  0  0  0  0  0  0  0  0  0  0  0
    1.1258    5.6420    9.3773 C   0  0  0  0  0  0  0  0  0  0  0  0
    0.0524    5.0637    8.4097 C   0  0  0  0  0  0  0  0  0  0  0  0
    0.4668    4.9408    7.0039 C   0  0  0  0  0  0  0  0  0  0  0  0
   -0.1971    5.3494    5.8684 C   0  0  0  0  0  0  0  0  0  0  0  0
    0.6151    4.9837    4.8348 N   0  0  0  0  0  0  0  0  0  0  0  0
    1.7301    4.4212    5.3794 C   0  0  0  0  0  0  0  0  0  0  0  0
    1.6439    4.3328    6.6857 N   0  0  0  0  0  0  0  0  0  0  0  0
    0.4031    6.2032   10.5021 N   0  0  0  0  0  0  0  0  0  0  0  0
   -0.4829    7.2897   10.5806 C   0  0  0  0  0  0  0  0  0  0  0  0
   -0.8138    8.0873    9.7600 O   0  0  0  0  0  0  0  0  0  0  0  0
   -1.0644    7.2849   11.8127 O   0  0  0  0  0  0  0  0  0  0  0  0
   -2.0866    6.2636   12.0278 C   0  0  0  0  0  0  0  0  0  0  0  0
   -3.0016    6.8194   13.1179 C   0  0  0  0  0  0  0  0  0  0  0  0
   -2.9644    6.0155   10.7822 C   0  0  0  0  0  0  0  0  0  0  0  0
   -1.4128    4.9938   12.5670 C   0  0  0  0  0  0  0  0  0  0  0  0
    2.2956    4.5273   11.4003 N   0  0  0  0  0  0  0  0  0  0  0  0
    3.3155    3.5126   11.8232 C   0  0  0  0  0  0  0  0  0  0  0  0
    4.6431    3.7116   11.0825 C   0  0  0  0  0  0  0  0  0  0  0  0
    5.7136    3.9386   11.6444 O   0  0  0  0  0  0  0  0  0  0  0  0
    3.3258    2.0471    9.2084 H   0  0  0  0  0  0  0  0  0  0  0  0
    5.0481    1.7452    9.3517 H   0  0  0  0  0  0  0  0  0  0  0  0
    4.4407    2.6239    7.9316 H   0  0  0  0  0  0  0  0  0  0  0  0
    3.9003    5.7234    9.6059 H   0  0  0  0  0  0  0  0  0  0  0  0
    3.5036    4.7787    8.1767 H   0  0  0  0  0  0  0  0  0  0  0  0
    1.7494    3.5613    9.6028 H   0  0  0  0  0  0  0  0  0  0  0  0
    1.6527    6.4781    8.9020 H   0  0  0  0  0  0  0  0  0  0  0  0
   -0.8472    5.6888    8.4246 H   0  0  0  0  0  0  0  0  0  0  0  0
   -0.2457    4.0828    8.7651 H   0  0  0  0  0  0  0  0  0  0  0  0
   -1.1493    5.8355    5.7116 H   0  0  0  0  0  0  0  0  0  0  0  0
    0.4219    5.0747    3.8475 H   0  0  0  0  0  0  0  0  0  0  0  0
    2.5615    4.0858    4.7742 H   0  0  0  0  0  0  0  0  0  0  0  0
    0.5035    5.7943   11.4217 H   0  0  0  0  0  0  0  0  0  0  0  0
   -3.4195    7.7876   12.8172 H   0  0  0  0  0  0  0  0  0  0  0  0
   -3.8336    6.1468   13.3462 H   0  0  0  0  0  0  0  0  0  0  0  0
   -2.4420    7.0037   14.0425 H   0  0  0  0  0  0  0  0  0  0  0  0
   -2.4068    5.5530    9.9702 H   0  0  0  0  0  0  0  0  0  0  0  0
   -3.3399    6.9685   10.3896 H   0  0  0  0  0  0  0  0  0  0  0  0
   -3.8349    5.3948   11.0020 H   0  0  0  0  0  0  0  0  0  0  0  0
   -2.0965    4.3355   13.0875 H   0  0  0  0  0  0  0  0  0  0  0  0
   -0.9295    4.4105   11.7841 H   0  0  0  0  0  0  0  0  0  0  0  0
   -0.6281    5.2586   13.2867 H   0  0  0  0  0  0  0  0  0  0  0  0
    2.6774    5.4379   11.6711 H   0  0  0  0  0  0  0  0  0  0  0  0
    2.9500    2.4953   11.6584 H   0  0  0  0  0  0  0  0  0  0  0  0
    3.4890    3.6416   12.8938 H   0  0  0  0  0  0  0  0  0  0  0  0
  1  2  1  0
  2  3  1  0
  3  4  1  0
  4  5  1  0
  5  6  1  0
  6  7  1  0
  7  8  2  0
  8  9  1  0
  9 10  1  0
 10 11  2  0
  5 12  1  0
 12 13  1  0
 13 14  2  0
 13 15  1  0
 15 16  1  0
 16 17  1  0
 16 18  1  0
 16 19  1  0
  4 20  1  0
 20 21  1  0
 21 22  1  0
 22 23  2  0
 22  2  1  0
 11  7  1  0
  1 24  1  0
  1 25  1  0
  1 26  1  0
  3 27  1  0
  3 28  1  0
  4 29  1  0
  5 30  1  0
  6 31  1  0
  6 32  1  0
  8 33  1  0
  9 34  1  0
 10 35  1  0
 12 36  1  0
 17 37  1  0
 17 38  1  0
 17 39  1  0
 18 40  1  0
 18 41  1  0
 18 42  1  0
 19 43  1  0
 19 44  1  0
 19 45  1  0
 20 46  1  0
 21 47  1  0
 21 48  1  0
M  END
>  <Energy>  (223) 
80.524302619419714

>  <compound_id>  (223) 
62944

>  <target_id>  (223) 
1

>  <reference_id>  (223) 
24

>  <inspiration_ids>  (223) 
[24, 63]

>  <energy_score>  (223) 
-17.940234334856257

>  <distance_score>  (223) 
9.63060279885035

>  <path>  (223) 
/opt/xchem-fragalysis-2/maxwin/BulkDock/SCRATCH/511020/C62944-P24/C62944-P24.minimised.mol

>  <scratch_subdir>  (223) 
/opt/xchem-fragalysis-2/maxwin/BulkDock/SCRATCH/511020/C62944-P24

>  <fragmenstein_runtime>  (223) 
24.869126319885254

>  <fragmenstein_outcome>  (223) 
too moved

>  <fragmenstein_mode>  (223) 
expansion

>  <fragmenstein_error>  (223) 


$$$$
C62944-P63
     RDKit          3D

 48 49  0  0  0  0  0  0  0  0999 V2000
    4.0397    5.9889   11.8093 C   0  0  0  0  0  0  0  0  0  0  0  0
    3.8791    5.0520   10.7137 N   0  0  0  0  0  0  0  0  0  0  0  0
    2.7003    5.2111    9.8658 C   0  0  0  0  0  0  0  0  0  0  0  0
    2.8608    4.4918    8.5121 C   0  0  0  0  0  0  0  0  0  0  0  0
    1.7679    4.9478    7.4603 C   0  0  0  0  0  0  0  0  0  0  0  0
    2.0488    4.4082    6.0361 C   0  0  0  0  0  0  0  0  0  0  0  0
    1.0146    4.7807    5.0144 C   0  0  0  0  0  0  0  0  0  0  0  0
    0.6193    6.0333    4.5911 C   0  0  0  0  0  0  0  0  0  0  0  0
   -0.3827    5.8083    3.6874 N   0  0  0  0  0  0  0  0  0  0  0  0
   -0.5484    4.4583    3.5779 C   0  0  0  0  0  0  0  0  0  0  0  0
    0.2901    3.8140    4.3518 N   0  0  0  0  0  0  0  0  0  0  0  0
    0.3722    4.7016    7.7810 N   0  0  0  0  0  0  0  0  0  0  0  0
   -0.5751    5.4953    8.4422 C   0  0  0  0  0  0  0  0  0  0  0  0
   -0.4658    6.5484    8.9866 O   0  0  0  0  0  0  0  0  0  0  0  0
   -1.7471    4.8384    8.2581 O   0  0  0  0  0  0  0  0  0  0  0  0
   -3.0383    5.4568    8.4553 C   0  0  0  0  0  0  0  0  0  0  0  0
   -3.2330    6.5746    7.4369 C   0  0  0  0  0  0  0  0  0  0  0  0
   -3.2548    5.9405    9.8837 C   0  0  0  0  0  0  0  0  0  0  0  0
   -4.0617    4.3546    8.1522 C   0  0  0  0  0  0  0  0  0  0  0  0
    2.9892    3.0551    8.8279 N   0  0  0  0  0  0  0  0  0  0  0  0
    4.2038    2.7858    9.6702 C   0  0  0  0  0  0  0  0  0  0  0  0
    4.5912    3.8594   10.7242 C   0  0  0  0  0  0  0  0  0  0  0  0
    5.5547    3.7179   11.4840 O   0  0  0  0  0  0  0  0  0  0  0  0
    3.2325    5.8254   12.5295 H   0  0  0  0  0  0  0  0  0  0  0  0
    3.9846    7.0094   11.4198 H   0  0  0  0  0  0  0  0  0  0  0  0
    4.9985    5.8593   12.3180 H   0  0  0  0  0  0  0  0  0  0  0  0
    2.5593    6.2844    9.6937 H   0  0  0  0  0  0  0  0  0  0  0  0
    1.8310    4.8364   10.4200 H   0  0  0  0  0  0  0  0  0  0  0  0
    3.8174    4.8086    8.0718 H   0  0  0  0  0  0  0  0  0  0  0  0
    1.8490    6.0431    7.4081 H   0  0  0  0  0  0  0  0  0  0  0  0
    3.0238    4.7787    5.6957 H   0  0  0  0  0  0  0  0  0  0  0  0
    2.1387    3.3263    6.0898 H   0  0  0  0  0  0  0  0  0  0  0  0
    0.9357    7.0292    4.8641 H   0  0  0  0  0  0  0  0  0  0  0  0
   -0.9139    6.5099    3.1926 H   0  0  0  0  0  0  0  0  0  0  0  0
   -1.2848    4.0090    2.9272 H   0  0  0  0  0  0  0  0  0  0  0  0
   -0.1001    3.9054    7.3644 H   0  0  0  0  0  0  0  0  0  0  0  0
   -3.0195    6.2243    6.4203 H   0  0  0  0  0  0  0  0  0  0  0  0
   -2.5501    7.4101    7.6241 H   0  0  0  0  0  0  0  0  0  0  0  0
   -4.2546    6.9689    7.4620 H   0  0  0  0  0  0  0  0  0  0  0  0
   -3.0070    5.1784   10.6213 H   0  0  0  0  0  0  0  0  0  0  0  0
   -2.6265    6.8064   10.1157 H   0  0  0  0  0  0  0  0  0  0  0  0
   -4.2930    6.2503   10.0478 H   0  0  0  0  0  0  0  0  0  0  0  0
   -3.7861    3.4429    8.6820 H   0  0  0  0  0  0  0  0  0  0  0  0
   -4.0677    4.1165    7.0835 H   0  0  0  0  0  0  0  0  0  0  0  0
   -5.0793    4.6455    8.4321 H   0  0  0  0  0  0  0  0  0  0  0  0
    3.1075    2.5100    7.9696 H   0  0  0  0  0  0  0  0  0  0  0  0
    5.0579    2.6737    8.9969 H   0  0  0  0  0  0  0  0  0  0  0  0
    4.0269    1.8419   10.1906 H   0  0  0  0  0  0  0  0  0  0  0  0
  1  2  1  0
  2  3  1  0
  3  4  1  0
  4  5  1  0
  5  6  1  0
  6  7  1  0
  7  8  2  0
  8  9  1  0
  9 10  1  0
 10 11  2  0
  5 12  1  0
 12 13  1  0
 13 14  2  0
 13 15  1  0
 15 16  1  0
 16 17  1  0
 16 18  1  0
 16 19  1  0
  4 20  1  0
 20 21  1  0
 21 22  1  0
 22 23  2  0
 22  2  1  0
 11  7  1  0
  1 24  1  0
  1 25  1  0
  1 26  1  0
  3 27  1  0
  3 28  1  0
  4 29  1  0
  5 30  1  0
  6 31  1  0
  6 32  1  0
  8 33  1  0
  9 34  1  0
 10 35  1  0
 12 36  1  0
 17 37  1  0
 17 38  1  0
 17 39  1  0
 18 40  1  0
 18 41  1  0
 18 42  1  0
 19 43  1  0
 19 44  1  0
 19 45  1  0
 20 46  1  0
 21 47  1  0
 21 48  1  0
M  END
>  <Energy>  (224) 
52.665907408556492

>  <compound_id>  (224) 
62944

>  <target_id>  (224) 
1

>  <reference_id>  (224) 
63

>  <inspiration_ids>  (224) 
[24, 63]

>  <energy_score>  (224) 
-45.79862954571661

>  <distance_score>  (224) 
8.901257840885231

>  <path>  (224) 
/opt/xchem-fragalysis-2/maxwin/BulkDock/SCRATCH/511020/C62944-P63/C62944-P63.minimised.mol

>  <scratch_subdir>  (224) 
/opt/xchem-fragalysis-2/maxwin/BulkDock/SCRATCH/511020/C62944-P63

>  <fragmenstein_runtime>  (224) 
27.234888076782227

>  <fragmenstein_outcome>  (224) 
too moved

>  <fragmenstein_mode>  (224) 
expansion

>  <fragmenstein_error>  (224) 


$$$$
C48739-P96
     RDKit          3D

 43 44  0  0  0  0  0  0  0  0999 V2000
  -11.6457  -23.5507   31.5301 C   0  0  0  0  0  0  0  0  0  0  0  0
  -12.6967  -23.1965   30.4927 C   0  0  0  0  0  0  0  0  0  0  0  0
  -12.1021  -22.8316   29.2213 N   0  0  0  0  0  0  0  0  0  0  0  0
  -11.9221  -23.6372   28.1369 C   0  0  0  0  0  0  0  0  0  0  0  0
  -11.0070  -22.9816   27.3436 C   0  0  0  0  0  0  0  0  0  0  0  0
  -10.7042  -21.7702   28.0407 C   0  0  0  0  0  0  0  0  0  0  0  0
   -9.3378  -21.2288   28.2399 C   0  0  0  0  0  0  0  0  0  0  0  0
   -8.6131  -22.0550   28.7548 O   0  0  0  0  0  0  0  0  0  0  0  0
   -9.0522  -19.6417   27.8690 N   0  0  0  0  0  0  0  0  0  0  0  0
   -7.3625  -18.3995   28.2993 C   0  0  0  0  0  0  0  0  0  0  0  0
   -6.0786  -18.7353   26.8280 C   0  0  0  0  0  0  0  0  0  0  0  0
   -6.0262  -18.0172   30.2850 C   0  0  0  0  0  0  0  0  0  0  0  0
   -4.7875  -17.4126   30.8334 N   0  0  0  0  0  0  0  0  0  0  0  0
   -2.8402  -17.6059   30.3207 C   0  0  0  0  0  0  0  0  0  0  0  0
   -2.2088  -18.4402   29.4577 O   0  0  0  0  0  0  0  0  0  0  0  0
   -2.0443  -16.1276   31.2477 C   0  0  0  0  0  0  0  0  0  0  0  0
   -0.8163  -17.1190   30.9181 O   0  0  0  0  0  0  0  0  0  0  0  0
   -2.4214  -14.2156   30.5523 C   0  0  0  0  0  0  0  0  0  0  0  0
   -1.3659  -13.1786   30.1024 C   0  0  0  0  0  0  0  0  0  0  0  0
   -1.4055  -12.6746   28.8162 N   0  0  0  0  0  0  0  0  0  0  0  0
   -2.6329  -12.9433   28.2556 C   0  0  0  0  0  0  0  0  0  0  0  0
   -3.2659  -13.7745   29.1238 N   0  0  0  0  0  0  0  0  0  0  0  0
  -11.5616  -21.6090   29.0766 N   0  0  0  0  0  0  0  0  0  0  0  0
  -11.0547  -24.4166   31.2136 H   0  0  0  0  0  0  0  0  0  0  0  0
  -12.1261  -23.7897   32.4825 H   0  0  0  0  0  0  0  0  0  0  0  0
  -10.9543  -22.7181   31.6985 H   0  0  0  0  0  0  0  0  0  0  0  0
  -13.3656  -24.0459   30.3224 H   0  0  0  0  0  0  0  0  0  0  0  0
  -13.2937  -22.3461   30.8353 H   0  0  0  0  0  0  0  0  0  0  0  0
  -12.3522  -24.6260   28.0742 H   0  0  0  0  0  0  0  0  0  0  0  0
  -10.4702  -23.4075   26.5091 H   0  0  0  0  0  0  0  0  0  0  0  0
   -9.7928  -19.2876   27.4014 H   0  0  0  0  0  0  0  0  0  0  0  0
   -7.0184  -19.6008   27.8389 H   0  0  0  0  0  0  0  0  0  0  0  0
   -5.4369  -17.9439   26.4811 H   0  0  0  0  0  0  0  0  0  0  0  0
   -6.7300  -18.5624   26.0702 H   0  0  0  0  0  0  0  0  0  0  0  0
   -5.4325  -19.6252   27.0898 H   0  0  0  0  0  0  0  0  0  0  0  0
   -5.0023  -18.5382   30.4273 H   0  0  0  0  0  0  0  0  0  0  0  0
   -6.1165  -18.9310   31.2302 H   0  0  0  0  0  0  0  0  0  0  0  0
   -4.9121  -16.7219   31.6019 H   0  0  0  0  0  0  0  0  0  0  0  0
   -1.3920  -15.7327   30.5625 H   0  0  0  0  0  0  0  0  0  0  0  0
   -0.2136  -16.7616   30.2259 H   0  0  0  0  0  0  0  0  0  0  0  0
   -0.3226  -13.4178   29.9778 H   0  0  0  0  0  0  0  0  0  0  0  0
   -1.0175  -11.7651   28.6878 H   0  0  0  0  0  0  0  0  0  0  0  0
   -2.6397  -12.9100   27.1872 H   0  0  0  0  0  0  0  0  0  0  0  0
  1  2  1  0
  2  3  1  0
  3  4  1  0
  4  5  2  0
  5  6  1  0
  6  7  1  0
  7  8  2  0
  7  9  1  0
  9 10  1  0
 10 11  1  0
 10 12  1  0
 12 13  1  0
 13 14  1  0
 14 15  2  0
 14 16  1  0
 16 17  1  0
 16 18  1  0
 18 19  2  0
 19 20  1  0
 20 21  1  0
 21 22  2  0
  6 23  2  0
 23  3  1  0
 22 18  1  0
  1 24  1  0
  1 25  1  0
  1 26  1  0
  2 27  1  0
  2 28  1  0
  4 29  1  0
  5 30  1  0
  9 31  1  0
 10 32  1  0
 11 33  1  0
 11 34  1  0
 11 35  1  0
 12 36  1  0
 12 37  1  0
 13 38  1  0
 16 39  1  0
 17 40  1  0
 19 41  1  0
 20 42  1  0
 21 43  1  0
M  END
>  <Energy>  (225) 
1324.610517471556

>  <compound_id>  (225) 
48739

>  <target_id>  (225) 
1

>  <reference_id>  (225) 
96

>  <inspiration_ids>  (225) 
[96, 116]

>  <energy_score>  (225) 
1192.3467929388994

>  <distance_score>  (225) 
2.752605971658499

>  <path>  (225) 
/opt/xchem-fragalysis-2/maxwin/BulkDock/SCRATCH/511020/C48739-P96/C48739-P96.minimised.mol

>  <scratch_subdir>  (225) 
/opt/xchem-fragalysis-2/maxwin/BulkDock/SCRATCH/511020/C48739-P96

>  <fragmenstein_runtime>  (225) 
20.031938076019287

>  <fragmenstein_outcome>  (225) 
too moved

>  <fragmenstein_mode>  (225) 
expansion

>  <fragmenstein_error>  (225) 


$$$$
C48739-P116
     RDKit          3D

 43 44  0  0  0  0  0  0  0  0999 V2000
  -12.0691  -22.3563   27.6214 C   0  0  0  0  0  0  0  0  0  0  0  0
  -12.5484  -22.9072   26.2904 C   0  0  0  0  0  0  0  0  0  0  0  0
  -11.7953  -24.0852   25.9698 N   0  0  0  0  0  0  0  0  0  0  0  0
  -12.0097  -25.3760   26.2873 C   0  0  0  0  0  0  0  0  0  0  0  0
  -10.7117  -25.6524   26.6644 C   0  0  0  0  0  0  0  0  0  0  0  0
   -9.7822  -24.5985   26.0850 C   0  0  0  0  0  0  0  0  0  0  0  0
   -8.8324  -23.6893   26.9876 C   0  0  0  0  0  0  0  0  0  0  0  0
   -9.3228  -23.5555   28.0588 O   0  0  0  0  0  0  0  0  0  0  0  0
   -7.3181  -22.8490   26.4551 N   0  0  0  0  0  0  0  0  0  0  0  0
   -6.2357  -21.5067   27.3425 C   0  0  0  0  0  0  0  0  0  0  0  0
   -7.6248  -21.5459   27.7371 C   0  0  0  0  0  0  0  0  0  0  0  0
   -5.7586  -19.4288   27.2266 C   0  0  0  0  0  0  0  0  0  0  0  0
   -3.8638  -18.7859   27.5389 N   0  0  0  0  0  0  0  0  0  0  0  0
   -3.3699  -17.4980   27.8669 C   0  0  0  0  0  0  0  0  0  0  0  0
   -3.9410  -16.5188   28.1452 O   0  0  0  0  0  0  0  0  0  0  0  0
   -1.8577  -17.2020   27.7321 C   0  0  0  0  0  0  0  0  0  0  0  0
   -1.6943  -17.4384   26.3185 O   0  0  0  0  0  0  0  0  0  0  0  0
   -1.4716  -15.6444   28.1455 C   0  0  0  0  0  0  0  0  0  0  0  0
   -0.6360  -15.1132   29.1316 C   0  0  0  0  0  0  0  0  0  0  0  0
   -0.5555  -13.7621   28.9167 N   0  0  0  0  0  0  0  0  0  0  0  0
   -1.3650  -13.4709   27.8706 C   0  0  0  0  0  0  0  0  0  0  0  0
   -1.9482  -14.5604   27.4145 N   0  0  0  0  0  0  0  0  0  0  0  0
  -10.6658  -24.0096   25.2729 N   0  0  0  0  0  0  0  0  0  0  0  0
  -11.1103  -21.8684   27.5381 H   0  0  0  0  0  0  0  0  0  0  0  0
  -12.7261  -21.6117   28.0541 H   0  0  0  0  0  0  0  0  0  0  0  0
  -11.9289  -23.1455   28.3540 H   0  0  0  0  0  0  0  0  0  0  0  0
  -13.5834  -23.2202   26.2832 H   0  0  0  0  0  0  0  0  0  0  0  0
  -12.4349  -22.1883   25.4765 H   0  0  0  0  0  0  0  0  0  0  0  0
  -12.9638  -25.7839   26.5643 H   0  0  0  0  0  0  0  0  0  0  0  0
  -10.5581  -26.3179   27.4935 H   0  0  0  0  0  0  0  0  0  0  0  0
   -7.0566  -23.1832   25.5420 H   0  0  0  0  0  0  0  0  0  0  0  0
   -5.6180  -22.1600   27.9566 H   0  0  0  0  0  0  0  0  0  0  0  0
   -7.7760  -22.4197   28.3403 H   0  0  0  0  0  0  0  0  0  0  0  0
   -8.1752  -21.3333   26.9213 H   0  0  0  0  0  0  0  0  0  0  0  0
   -8.1628  -20.6876   27.9637 H   0  0  0  0  0  0  0  0  0  0  0  0
   -5.5649  -19.0643   28.1794 H   0  0  0  0  0  0  0  0  0  0  0  0
   -5.9510  -18.3933   27.5434 H   0  0  0  0  0  0  0  0  0  0  0  0
   -3.0911  -19.3740   27.2670 H   0  0  0  0  0  0  0  0  0  0  0  0
   -1.2854  -17.9800   28.1469 H   0  0  0  0  0  0  0  0  0  0  0  0
   -2.3155  -16.7982   25.9266 H   0  0  0  0  0  0  0  0  0  0  0  0
   -0.0612  -15.5663   29.9250 H   0  0  0  0  0  0  0  0  0  0  0  0
    0.0111  -13.1010   29.4293 H   0  0  0  0  0  0  0  0  0  0  0  0
   -1.4972  -12.4719   27.4745 H   0  0  0  0  0  0  0  0  0  0  0  0
  1  2  1  0
  2  3  1  0
  3  4  1  0
  4  5  2  0
  5  6  1  0
  6  7  1  0
  7  8  2  0
  7  9  1  0
  9 10  1  0
 10 11  1  0
 10 12  1  0
 12 13  1  0
 13 14  1  0
 14 15  2  0
 14 16  1  0
 16 17  1  0
 16 18  1  0
 18 19  2  0
 19 20  1  0
 20 21  1  0
 21 22  2  0
  6 23  2  0
 23  3  1  0
 22 18  1  0
  1 24  1  0
  1 25  1  0
  1 26  1  0
  2 27  1  0
  2 28  1  0
  4 29  1  0
  5 30  1  0
  9 31  1  0
 10 32  1  0
 11 33  1  0
 11 34  1  0
 11 35  1  0
 12 36  1  0
 12 37  1  0
 13 38  1  0
 16 39  1  0
 17 40  1  0
 19 41  1  0
 20 42  1  0
 21 43  1  0
M  END
>  <Energy>  (226) 
716.31185276355677

>  <compound_id>  (226) 
48739

>  <target_id>  (226) 
1

>  <reference_id>  (226) 
116

>  <inspiration_ids>  (226) 
[96, 116]

>  <energy_score>  (226) 
584.0481282309102

>  <distance_score>  (226) 
3.7287764383399025

>  <path>  (226) 
/opt/xchem-fragalysis-2/maxwin/BulkDock/SCRATCH/511020/C48739-P116/C48739-P116.minimised.mol

>  <scratch_subdir>  (226) 
/opt/xchem-fragalysis-2/maxwin/BulkDock/SCRATCH/511020/C48739-P116

>  <fragmenstein_runtime>  (226) 
25.96983790397644

>  <fragmenstein_outcome>  (226) 
too moved

>  <fragmenstein_mode>  (226) 
expansion

>  <fragmenstein_error>  (226) 


$$$$
C48741-P96
     RDKit          3D

 46 47  0  0  0  0  0  0  0  0999 V2000
   -9.7068  -25.8700   27.6218 C   0  0  0  0  0  0  0  0  0  0  0  0
   -9.2134  -24.9956   28.7725 C   0  0  0  0  0  0  0  0  0  0  0  0
  -10.2305  -23.9776   29.0023 C   0  0  0  0  0  0  0  0  0  0  0  0
  -11.4439  -24.3543   29.5609 C   0  0  0  0  0  0  0  0  0  0  0  0
  -12.2031  -23.2521   29.5803 N   0  0  0  0  0  0  0  0  0  0  0  0
  -11.6069  -22.2181   29.0243 N   0  0  0  0  0  0  0  0  0  0  0  0
  -10.3100  -22.5754   28.7668 C   0  0  0  0  0  0  0  0  0  0  0  0
   -9.4159  -21.3416   28.5408 C   0  0  0  0  0  0  0  0  0  0  0  0
   -9.9449  -20.4045   28.9318 O   0  0  0  0  0  0  0  0  0  0  0  0
   -7.7912  -21.6102   27.8708 N   0  0  0  0  0  0  0  0  0  0  0  0
   -6.6132  -20.8810   27.6818 C   0  0  0  0  0  0  0  0  0  0  0  0
   -5.0724  -21.4439   27.0436 C   0  0  0  0  0  0  0  0  0  0  0  0
   -6.6157  -20.0664   27.5388 C   0  0  0  0  0  0  0  0  0  0  0  0
   -5.6229  -18.6400   26.4773 C   0  0  0  0  0  0  0  0  0  0  0  0
   -5.1518  -16.8773   26.9239 N   0  0  0  0  0  0  0  0  0  0  0  0
   -5.6196  -15.8573   28.3552 C   0  0  0  0  0  0  0  0  0  0  0  0
   -6.3432  -16.2135   29.3008 O   0  0  0  0  0  0  0  0  0  0  0  0
   -4.9882  -14.5261   28.4379 C   0  0  0  0  0  0  0  0  0  0  0  0
   -5.9547  -13.5217   28.7991 O   0  0  0  0  0  0  0  0  0  0  0  0
   -3.7198  -14.3100   27.3900 C   0  0  0  0  0  0  0  0  0  0  0  0
   -2.7744  -13.1947   27.2726 C   0  0  0  0  0  0  0  0  0  0  0  0
   -2.1988  -13.5907   26.1533 N   0  0  0  0  0  0  0  0  0  0  0  0
   -2.2920  -14.9946   26.0510 C   0  0  0  0  0  0  0  0  0  0  0  0
   -3.4166  -15.2942   26.4996 N   0  0  0  0  0  0  0  0  0  0  0  0
  -10.5096  -26.5284   27.9728 H   0  0  0  0  0  0  0  0  0  0  0  0
  -10.1286  -25.2801   26.7992 H   0  0  0  0  0  0  0  0  0  0  0  0
   -8.9100  -26.4947   27.2162 H   0  0  0  0  0  0  0  0  0  0  0  0
   -9.1035  -25.5945   29.6813 H   0  0  0  0  0  0  0  0  0  0  0  0
   -8.2461  -24.5583   28.6114 H   0  0  0  0  0  0  0  0  0  0  0  0
  -11.8069  -25.3068   29.9199 H   0  0  0  0  0  0  0  0  0  0  0  0
  -13.1434  -23.1330   29.9399 H   0  0  0  0  0  0  0  0  0  0  0  0
   -6.8708  -21.5567   26.6577 H   0  0  0  0  0  0  0  0  0  0  0  0
   -6.1301  -21.6726   28.2763 H   0  0  0  0  0  0  0  0  0  0  0  0
   -5.2687  -22.1224   26.2106 H   0  0  0  0  0  0  0  0  0  0  0  0
   -4.3276  -21.7683   27.7631 H   0  0  0  0  0  0  0  0  0  0  0  0
   -4.6443  -20.5685   26.6495 H   0  0  0  0  0  0  0  0  0  0  0  0
   -7.6102  -19.7837   26.9607 H   0  0  0  0  0  0  0  0  0  0  0  0
   -7.1416  -19.0877   27.7403 H   0  0  0  0  0  0  0  0  0  0  0  0
   -4.9703  -19.0281   25.6569 H   0  0  0  0  0  0  0  0  0  0  0  0
   -6.4419  -18.3812   25.9380 H   0  0  0  0  0  0  0  0  0  0  0  0
   -4.4905  -16.3706   26.3554 H   0  0  0  0  0  0  0  0  0  0  0  0
   -4.2210  -14.1488   29.0317 H   0  0  0  0  0  0  0  0  0  0  0  0
   -6.0773  -13.5851   29.7466 H   0  0  0  0  0  0  0  0  0  0  0  0
   -2.6106  -12.3297   27.8618 H   0  0  0  0  0  0  0  0  0  0  0  0
   -2.2954  -13.0147   25.3368 H   0  0  0  0  0  0  0  0  0  0  0  0
   -1.6288  -15.7534   25.6278 H   0  0  0  0  0  0  0  0  0  0  0  0
  1  2  1  0
  2  3  1  0
  3  4  2  0
  4  5  1  0
  5  6  1  0
  6  7  2  0
  7  8  1  0
  8  9  2  0
  8 10  1  0
 10 11  1  0
 11 12  1  0
 10 13  1  0
 13 14  1  0
 14 15  1  0
 15 16  1  0
 16 17  2  0
 16 18  1  0
 18 19  1  0
 18 20  1  0
 20 21  2  0
 21 22  1  0
 22 23  1  0
 23 24  2  0
  7  3  1  0
 24 20  1  0
  1 25  1  0
  1 26  1  0
  1 27  1  0
  2 28  1  0
  2 29  1  0
  4 30  1  0
  5 31  1  0
 11 32  1  0
 11 33  1  0
 12 34  1  0
 12 35  1  0
 12 36  1  0
 13 37  1  0
 13 38  1  0
 14 39  1  0
 14 40  1  0
 15 41  1  0
 18 42  1  0
 19 43  1  0
 21 44  1  0
 22 45  1  0
 23 46  1  0
M  END
>  <Energy>  (227) 
1236.1568662949858

>  <compound_id>  (227) 
48741

>  <target_id>  (227) 
1

>  <reference_id>  (227) 
96

>  <inspiration_ids>  (227) 
[96, 116]

>  <energy_score>  (227) 
1085.308079569817

>  <distance_score>  (227) 
2.8646742480667613

>  <path>  (227) 
/opt/xchem-fragalysis-2/maxwin/BulkDock/SCRATCH/511020/C48741-P96/C48741-P96.minimised.mol

>  <scratch_subdir>  (227) 
/opt/xchem-fragalysis-2/maxwin/BulkDock/SCRATCH/511020/C48741-P96

>  <fragmenstein_runtime>  (227) 
20.216368198394775

>  <fragmenstein_outcome>  (227) 
too moved

>  <fragmenstein_mode>  (227) 
expansion

>  <fragmenstein_error>  (227) 


$$$$
C48741-P116
     RDKit          3D

 46 47  0  0  0  0  0  0  0  0999 V2000
  -11.3158  -26.3985   26.3324 C   0  0  0  0  0  0  0  0  0  0  0  0
  -10.5400  -25.1185   26.0483 C   0  0  0  0  0  0  0  0  0  0  0  0
  -10.4049  -24.1946   27.1552 C   0  0  0  0  0  0  0  0  0  0  0  0
  -11.6085  -23.6236   27.5173 C   0  0  0  0  0  0  0  0  0  0  0  0
  -11.3062  -22.6018   28.2881 N   0  0  0  0  0  0  0  0  0  0  0  0
  -10.0157  -22.4063   28.3225 N   0  0  0  0  0  0  0  0  0  0  0  0
   -9.2662  -23.3554   27.6881 C   0  0  0  0  0  0  0  0  0  0  0  0
   -7.7326  -22.9722   26.7889 C   0  0  0  0  0  0  0  0  0  0  0  0
   -7.7425  -23.5202   25.7507 O   0  0  0  0  0  0  0  0  0  0  0  0
   -6.5468  -21.9037   27.2740 N   0  0  0  0  0  0  0  0  0  0  0  0
   -5.4859  -21.6140   26.7609 C   0  0  0  0  0  0  0  0  0  0  0  0
   -5.0492  -22.7292   28.2385 C   0  0  0  0  0  0  0  0  0  0  0  0
   -4.9021  -21.0311   26.1752 C   0  0  0  0  0  0  0  0  0  0  0  0
   -3.2358  -19.6097   26.6660 C   0  0  0  0  0  0  0  0  0  0  0  0
   -2.9176  -17.9788   27.3037 N   0  0  0  0  0  0  0  0  0  0  0  0
   -1.8013  -17.1079   27.1299 C   0  0  0  0  0  0  0  0  0  0  0  0
   -0.8038  -17.2592   26.5177 O   0  0  0  0  0  0  0  0  0  0  0  0
   -1.8040  -15.5040   27.9070 C   0  0  0  0  0  0  0  0  0  0  0  0
   -2.6010  -15.1450   28.9648 O   0  0  0  0  0  0  0  0  0  0  0  0
   -0.4703  -14.8377   28.4689 C   0  0  0  0  0  0  0  0  0  0  0  0
    0.1366  -13.6488   28.0752 C   0  0  0  0  0  0  0  0  0  0  0  0
    0.9936  -13.3088   29.0799 N   0  0  0  0  0  0  0  0  0  0  0  0
    0.8052  -14.1996   30.0940 C   0  0  0  0  0  0  0  0  0  0  0  0
   -0.1155  -15.0858   29.7955 N   0  0  0  0  0  0  0  0  0  0  0  0
  -12.3906  -26.1981   26.3991 H   0  0  0  0  0  0  0  0  0  0  0  0
  -11.1889  -27.1223   25.5259 H   0  0  0  0  0  0  0  0  0  0  0  0
  -11.0111  -26.8784   27.2667 H   0  0  0  0  0  0  0  0  0  0  0  0
   -9.6134  -25.2153   25.5346 H   0  0  0  0  0  0  0  0  0  0  0  0
  -11.1108  -24.5365   25.3491 H   0  0  0  0  0  0  0  0  0  0  0  0
  -12.6183  -23.8331   27.2084 H   0  0  0  0  0  0  0  0  0  0  0  0
  -11.9269  -21.9306   28.7303 H   0  0  0  0  0  0  0  0  0  0  0  0
   -6.1093  -20.6609   27.2421 H   0  0  0  0  0  0  0  0  0  0  0  0
   -5.8402  -22.4952   26.0473 H   0  0  0  0  0  0  0  0  0  0  0  0
   -4.3799  -23.5578   27.9110 H   0  0  0  0  0  0  0  0  0  0  0  0
   -4.6615  -22.5161   29.2096 H   0  0  0  0  0  0  0  0  0  0  0  0
   -6.0002  -23.0338   28.6603 H   0  0  0  0  0  0  0  0  0  0  0  0
   -4.8226  -21.2763   25.0227 H   0  0  0  0  0  0  0  0  0  0  0  0
   -5.4226  -20.0511   25.7294 H   0  0  0  0  0  0  0  0  0  0  0  0
   -2.3589  -19.9516   27.2480 H   0  0  0  0  0  0  0  0  0  0  0  0
   -2.6631  -19.3570   25.7794 H   0  0  0  0  0  0  0  0  0  0  0  0
   -3.6323  -17.4953   27.8214 H   0  0  0  0  0  0  0  0  0  0  0  0
   -2.1233  -14.8471   27.0912 H   0  0  0  0  0  0  0  0  0  0  0  0
   -1.9861  -15.2667   29.7184 H   0  0  0  0  0  0  0  0  0  0  0  0
   -0.0006  -13.0154   27.2086 H   0  0  0  0  0  0  0  0  0  0  0  0
    1.5915  -12.4942   29.1091 H   0  0  0  0  0  0  0  0  0  0  0  0
    1.3437  -14.1349   31.0291 H   0  0  0  0  0  0  0  0  0  0  0  0
  1  2  1  0
  2  3  1  0
  3  4  2  0
  4  5  1  0
  5  6  1  0
  6  7  2  0
  7  8  1  0
  8  9  2  0
  8 10  1  0
 10 11  1  0
 11 12  1  0
 10 13  1  0
 13 14  1  0
 14 15  1  0
 15 16  1  0
 16 17  2  0
 16 18  1  0
 18 19  1  0
 18 20  1  0
 20 21  2  0
 21 22  1  0
 22 23  1  0
 23 24  2  0
  7  3  1  0
 24 20  1  0
  1 25  1  0
  1 26  1  0
  1 27  1  0
  2 28  1  0
  2 29  1  0
  4 30  1  0
  5 31  1  0
 11 32  1  0
 11 33  1  0
 12 34  1  0
 12 35  1  0
 12 36  1  0
 13 37  1  0
 13 38  1  0
 14 39  1  0
 14 40  1  0
 15 41  1  0
 18 42  1  0
 19 43  1  0
 21 44  1  0
 22 45  1  0
 23 46  1  0
M  END
>  <Energy>  (228) 
1379.3563742384349

>  <compound_id>  (228) 
48741

>  <target_id>  (228) 
1

>  <reference_id>  (228) 
116

>  <inspiration_ids>  (228) 
[96, 116]

>  <energy_score>  (228) 
1228.5075875132825

>  <distance_score>  (228) 
2.9391395167293672

>  <path>  (228) 
/opt/xchem-fragalysis-2/maxwin/BulkDock/SCRATCH/511020/C48741-P116/C48741-P116.minimised.mol

>  <scratch_subdir>  (228) 
/opt/xchem-fragalysis-2/maxwin/BulkDock/SCRATCH/511020/C48741-P116

>  <fragmenstein_runtime>  (228) 
29.4099063873291

>  <fragmenstein_outcome>  (228) 
too moved

>  <fragmenstein_mode>  (228) 
expansion

>  <fragmenstein_error>  (228) 


$$$$
C17986-P96
     RDKit          3D

 42 44  0  0  0  0  0  0  0  0999 V2000
   -4.8408  -19.2904   25.4383 C   0  0  0  0  0  0  0  0  0  0  0  0
   -6.0554  -18.4045   26.5281 C   0  0  0  0  0  0  0  0  0  0  0  0
   -7.8175  -17.3768   27.3587 C   0  0  0  0  0  0  0  0  0  0  0  0
   -6.7685  -19.8847   27.5361 N   0  0  0  0  0  0  0  0  0  0  0  0
   -7.0420  -21.3272   27.1775 C   0  0  0  0  0  0  0  0  0  0  0  0
   -6.7840  -21.9421   26.1764 O   0  0  0  0  0  0  0  0  0  0  0  0
   -8.0914  -22.2012   28.4714 C   0  0  0  0  0  0  0  0  0  0  0  0
   -7.9767  -23.5350   29.2576 C   0  0  0  0  0  0  0  0  0  0  0  0
   -8.9622  -23.7971   30.1540 C   0  0  0  0  0  0  0  0  0  0  0  0
   -9.8051  -22.8363   29.9828 N   0  0  0  0  0  0  0  0  0  0  0  0
   -9.5023  -22.2495   28.7566 N   0  0  0  0  0  0  0  0  0  0  0  0
  -10.7358  -21.7800   28.1699 C   0  0  0  0  0  0  0  0  0  0  0  0
  -11.6338  -21.3077   29.3276 C   0  0  0  0  0  0  0  0  0  0  0  0
  -12.4243  -22.5473   29.7809 C   0  0  0  0  0  0  0  0  0  0  0  0
  -12.2573  -23.6233   28.7005 C   0  0  0  0  0  0  0  0  0  0  0  0
  -11.4547  -22.9918   27.5592 C   0  0  0  0  0  0  0  0  0  0  0  0
   -4.6475  -16.9643   26.8895 C   0  0  0  0  0  0  0  0  0  0  0  0
   -2.9934  -17.2893   26.4250 N   0  0  0  0  0  0  0  0  0  0  0  0
   -2.0218  -16.5436   25.7298 C   0  0  0  0  0  0  0  0  0  0  0  0
   -2.6469  -15.4122   25.6346 C   0  0  0  0  0  0  0  0  0  0  0  0
   -3.7645  -15.4811   26.4454 N   0  0  0  0  0  0  0  0  0  0  0  0
   -4.5715  -20.0367   26.1718 H   0  0  0  0  0  0  0  0  0  0  0  0
   -4.2495  -18.6940   24.7810 H   0  0  0  0  0  0  0  0  0  0  0  0
   -4.8610  -20.0592   24.6533 H   0  0  0  0  0  0  0  0  0  0  0  0
   -8.6701  -16.9402   26.7927 H   0  0  0  0  0  0  0  0  0  0  0  0
   -8.2250  -17.9415   28.1154 H   0  0  0  0  0  0  0  0  0  0  0  0
   -7.6109  -16.3292   27.6592 H   0  0  0  0  0  0  0  0  0  0  0  0
   -6.9952  -19.7498   28.3498 H   0  0  0  0  0  0  0  0  0  0  0  0
   -7.1776  -24.2415   29.2055 H   0  0  0  0  0  0  0  0  0  0  0  0
   -9.0953  -24.5699   30.8978 H   0  0  0  0  0  0  0  0  0  0  0  0
  -10.5671  -20.9663   27.4859 H   0  0  0  0  0  0  0  0  0  0  0  0
  -12.2268  -20.4806   28.9935 H   0  0  0  0  0  0  0  0  0  0  0  0
  -11.0900  -20.8606   30.1717 H   0  0  0  0  0  0  0  0  0  0  0  0
  -13.4557  -22.3221   30.0054 H   0  0  0  0  0  0  0  0  0  0  0  0
  -12.0545  -22.9258   30.7422 H   0  0  0  0  0  0  0  0  0  0  0  0
  -11.7177  -24.4850   29.1111 H   0  0  0  0  0  0  0  0  0  0  0  0
  -13.2106  -24.0225   28.3482 H   0  0  0  0  0  0  0  0  0  0  0  0
  -12.1229  -22.7107   26.7475 H   0  0  0  0  0  0  0  0  0  0  0  0
  -10.7594  -23.7203   27.1237 H   0  0  0  0  0  0  0  0  0  0  0  0
   -1.0390  -16.8382   25.4736 H   0  0  0  0  0  0  0  0  0  0  0  0
   -2.8871  -15.0281   24.6501 H   0  0  0  0  0  0  0  0  0  0  0  0
   -4.3731  -15.3547   25.7655 H   0  0  0  0  0  0  0  0  0  0  0  0
  1  2  1  0
  2  3  1  0
  2  4  1  0
  4  5  1  0
  5  6  2  0
  5  7  1  0
  7  8  2  0
  8  9  1  0
  9 10  2  0
 10 11  1  0
 11 12  1  0
 12 13  1  0
 13 14  1  0
 14 15  1  0
 15 16  1  0
  2 17  1  0
 17 18  2  0
 18 19  1  0
 19 20  2  0
 20 21  1  0
 11  7  1  0
 16 12  1  0
 21 17  1  0
  1 22  1  0
  1 23  1  0
  1 24  1  0
  3 25  1  0
  3 26  1  0
  3 27  1  0
  4 28  1  0
  8 29  1  0
  9 30  1  0
 12 31  1  0
 13 32  1  0
 13 33  1  0
 14 34  1  0
 14 35  1  0
 15 36  1  0
 15 37  1  0
 16 38  1  0
 16 39  1  0
 19 40  1  0
 20 41  1  0
 21 42  1  0
M  END
>  <Energy>  (229) 
775.27318179238171

>  <compound_id>  (229) 
17986

>  <target_id>  (229) 
1

>  <reference_id>  (229) 
96

>  <inspiration_ids>  (229) 
[96, 116]

>  <energy_score>  (229) 
723.0128628340286

>  <distance_score>  (229) 
3.92481595470563

>  <path>  (229) 
/opt/xchem-fragalysis-2/maxwin/BulkDock/SCRATCH/511020/C17986-P96/C17986-P96.minimised.mol

>  <scratch_subdir>  (229) 
/opt/xchem-fragalysis-2/maxwin/BulkDock/SCRATCH/511020/C17986-P96

>  <fragmenstein_runtime>  (229) 
17.397037982940674

>  <fragmenstein_outcome>  (229) 
too moved

>  <fragmenstein_mode>  (229) 
expansion

>  <fragmenstein_error>  (229) 


$$$$
C17986-P116
     RDKit          3D

 42 44  0  0  0  0  0  0  0  0999 V2000
   -5.3242  -20.0132   25.6390 C   0  0  0  0  0  0  0  0  0  0  0  0
   -5.8696  -19.3740   27.1793 C   0  0  0  0  0  0  0  0  0  0  0  0
   -6.7366  -17.8890   28.3324 C   0  0  0  0  0  0  0  0  0  0  0  0
   -7.1137  -21.0093   27.4877 N   0  0  0  0  0  0  0  0  0  0  0  0
   -7.1363  -22.3760   26.8907 C   0  0  0  0  0  0  0  0  0  0  0  0
   -6.3612  -22.8676   26.1302 O   0  0  0  0  0  0  0  0  0  0  0  0
   -8.5689  -23.3805   27.2516 C   0  0  0  0  0  0  0  0  0  0  0  0
   -9.2522  -24.3167   26.3147 C   0  0  0  0  0  0  0  0  0  0  0  0
  -10.3220  -25.0008   26.8804 C   0  0  0  0  0  0  0  0  0  0  0  0
  -10.2730  -24.6410   28.1431 N   0  0  0  0  0  0  0  0  0  0  0  0
   -9.7474  -23.4030   28.0326 N   0  0  0  0  0  0  0  0  0  0  0  0
  -10.7601  -22.4196   28.2072 C   0  0  0  0  0  0  0  0  0  0  0  0
  -11.3798  -21.8928   29.4883 C   0  0  0  0  0  0  0  0  0  0  0  0
  -12.6469  -21.3388   29.0132 C   0  0  0  0  0  0  0  0  0  0  0  0
  -12.6995  -21.8045   27.5680 C   0  0  0  0  0  0  0  0  0  0  0  0
  -11.8740  -22.9324   27.3698 C   0  0  0  0  0  0  0  0  0  0  0  0
   -3.9932  -18.6105   27.7407 C   0  0  0  0  0  0  0  0  0  0  0  0
   -2.7729  -19.0414   27.0426 N   0  0  0  0  0  0  0  0  0  0  0  0
   -2.0139  -17.9446   26.6736 C   0  0  0  0  0  0  0  0  0  0  0  0
   -2.3924  -16.8820   27.3885 C   0  0  0  0  0  0  0  0  0  0  0  0
   -3.6503  -17.2345   27.8409 N   0  0  0  0  0  0  0  0  0  0  0  0
   -4.3106  -19.9273   25.2992 H   0  0  0  0  0  0  0  0  0  0  0  0
   -5.2051  -21.0832   25.5512 H   0  0  0  0  0  0  0  0  0  0  0  0
   -5.7405  -19.3066   24.9610 H   0  0  0  0  0  0  0  0  0  0  0  0
   -6.2421  -17.6451   29.2582 H   0  0  0  0  0  0  0  0  0  0  0  0
   -7.8555  -18.2029   28.4814 H   0  0  0  0  0  0  0  0  0  0  0  0
   -7.3370  -17.0263   27.9452 H   0  0  0  0  0  0  0  0  0  0  0  0
   -7.9305  -20.8780   28.0061 H   0  0  0  0  0  0  0  0  0  0  0  0
   -8.9258  -24.5269   25.3131 H   0  0  0  0  0  0  0  0  0  0  0  0
  -10.9774  -25.7789   26.5203 H   0  0  0  0  0  0  0  0  0  0  0  0
  -10.3976  -21.4948   27.8037 H   0  0  0  0  0  0  0  0  0  0  0  0
  -10.8699  -21.0569   29.9161 H   0  0  0  0  0  0  0  0  0  0  0  0
  -11.5602  -22.5256   30.3340 H   0  0  0  0  0  0  0  0  0  0  0  0
  -13.3748  -21.6550   29.7497 H   0  0  0  0  0  0  0  0  0  0  0  0
  -12.7103  -20.2639   29.0845 H   0  0  0  0  0  0  0  0  0  0  0  0
  -13.5821  -22.2446   27.1864 H   0  0  0  0  0  0  0  0  0  0  0  0
  -12.3136  -21.1123   26.8375 H   0  0  0  0  0  0  0  0  0  0  0  0
  -11.7032  -23.0727   26.2990 H   0  0  0  0  0  0  0  0  0  0  0  0
  -12.3887  -23.8159   27.7223 H   0  0  0  0  0  0  0  0  0  0  0  0
   -1.1900  -18.0147   25.9912 H   0  0  0  0  0  0  0  0  0  0  0  0
   -1.9968  -15.8893   27.5379 H   0  0  0  0  0  0  0  0  0  0  0  0
   -4.2208  -16.6081   28.3629 H   0  0  0  0  0  0  0  0  0  0  0  0
  1  2  1  0
  2  3  1  0
  2  4  1  0
  4  5  1  0
  5  6  2  0
  5  7  1  0
  7  8  2  0
  8  9  1  0
  9 10  2  0
 10 11  1  0
 11 12  1  0
 12 13  1  0
 13 14  1  0
 14 15  1  0
 15 16  1  0
  2 17  1  0
 17 18  2  0
 18 19  1  0
 19 20  2  0
 20 21  1  0
 11  7  1  0
 16 12  1  0
 21 17  1  0
  1 22  1  0
  1 23  1  0
  1 24  1  0
  3 25  1  0
  3 26  1  0
  3 27  1  0
  4 28  1  0
  8 29  1  0
  9 30  1  0
 12 31  1  0
 13 32  1  0
 13 33  1  0
 14 34  1  0
 14 35  1  0
 15 36  1  0
 15 37  1  0
 16 38  1  0
 16 39  1  0
 19 40  1  0
 20 41  1  0
 21 42  1  0
M  END
>  <Energy>  (230) 
538.93505305140172

>  <compound_id>  (230) 
17986

>  <target_id>  (230) 
1

>  <reference_id>  (230) 
116

>  <inspiration_ids>  (230) 
[96, 116]

>  <energy_score>  (230) 
486.67473409303886

>  <distance_score>  (230) 
4.633258867797084

>  <path>  (230) 
/opt/xchem-fragalysis-2/maxwin/BulkDock/SCRATCH/511020/C17986-P116/C17986-P116.minimised.mol

>  <scratch_subdir>  (230) 
/opt/xchem-fragalysis-2/maxwin/BulkDock/SCRATCH/511020/C17986-P116

>  <fragmenstein_runtime>  (230) 
17.32148003578186

>  <fragmenstein_outcome>  (230) 
too moved

>  <fragmenstein_mode>  (230) 
expansion

>  <fragmenstein_error>  (230) 


$$$$
C17987-P96
     RDKit          3D

 46 48  0  0  0  0  0  0  0  0999 V2000
   -6.5533  -18.4305   26.0659 O   0  0  0  0  0  0  0  0  0  0  0  0
   -5.5937  -18.5969   26.6545 C   0  0  0  0  0  0  0  0  0  0  0  0
   -4.7100  -16.8818   26.9349 C   0  0  0  0  0  0  0  0  0  0  0  0
   -2.7130  -15.8228   26.0344 S   0  0  0  0  0  0  0  0  0  0  0  0
   -2.4110  -13.9538   26.2841 C   0  0  0  0  0  0  0  0  0  0  0  0
   -1.1783  -13.4913   27.0958 C   0  0  0  0  0  0  0  0  0  0  0  0
    0.3401  -14.0225   27.3910 N   0  0  0  0  0  0  0  0  0  0  0  0
    0.4837  -13.7177   28.8043 C   0  0  0  0  0  0  0  0  0  0  0  0
   -0.5805  -12.8909   29.2260 C   0  0  0  0  0  0  0  0  0  0  0  0
   -1.5330  -12.7785   28.2479 N   0  0  0  0  0  0  0  0  0  0  0  0
   -5.1473  -20.0763   27.2811 N   0  0  0  0  0  0  0  0  0  0  0  0
   -5.8542  -21.3713   27.3220 C   0  0  0  0  0  0  0  0  0  0  0  0
   -7.3421  -21.4056   27.6976 C   0  0  0  0  0  0  0  0  0  0  0  0
   -8.6071  -22.3178   28.4711 C   0  0  0  0  0  0  0  0  0  0  0  0
   -8.6266  -23.5955   29.1537 C   0  0  0  0  0  0  0  0  0  0  0  0
   -9.8726  -23.7474   29.7006 C   0  0  0  0  0  0  0  0  0  0  0  0
  -10.5068  -22.5698   29.4642 N   0  0  0  0  0  0  0  0  0  0  0  0
  -11.5554  -21.9892   30.2823 C   0  0  0  0  0  0  0  0  0  0  0  0
  -12.5821  -22.9626   30.8650 C   0  0  0  0  0  0  0  0  0  0  0  0
  -13.2320  -22.1471   31.9731 C   0  0  0  0  0  0  0  0  0  0  0  0
  -12.0664  -21.4247   32.6276 C   0  0  0  0  0  0  0  0  0  0  0  0
  -11.0130  -21.2661   31.5316 C   0  0  0  0  0  0  0  0  0  0  0  0
   -9.8495  -21.7866   28.5737 N   0  0  0  0  0  0  0  0  0  0  0  0
   -5.2898  -16.1996   27.6965 H   0  0  0  0  0  0  0  0  0  0  0  0
   -5.4081  -16.5256   26.3322 H   0  0  0  0  0  0  0  0  0  0  0  0
   -2.5061  -13.2519   25.4452 H   0  0  0  0  0  0  0  0  0  0  0  0
   -3.2259  -13.7795   26.9588 H   0  0  0  0  0  0  0  0  0  0  0  0
    1.3713  -14.0800   29.2725 H   0  0  0  0  0  0  0  0  0  0  0  0
   -0.7607  -12.2320   30.0374 H   0  0  0  0  0  0  0  0  0  0  0  0
   -2.1742  -12.0242   28.0688 H   0  0  0  0  0  0  0  0  0  0  0  0
   -4.3408  -19.9637   27.8123 H   0  0  0  0  0  0  0  0  0  0  0  0
   -5.6495  -21.8198   26.3475 H   0  0  0  0  0  0  0  0  0  0  0  0
   -5.2882  -21.8985   28.0512 H   0  0  0  0  0  0  0  0  0  0  0  0
   -7.5134  -21.9369   26.7841 H   0  0  0  0  0  0  0  0  0  0  0  0
   -7.6027  -20.3818   27.6135 H   0  0  0  0  0  0  0  0  0  0  0  0
   -7.8365  -24.3147   29.2949 H   0  0  0  0  0  0  0  0  0  0  0  0
  -10.2771  -24.5250   30.3309 H   0  0  0  0  0  0  0  0  0  0  0  0
  -12.0677  -21.2608   29.6459 H   0  0  0  0  0  0  0  0  0  0  0  0
  -13.2931  -23.3102   30.1143 H   0  0  0  0  0  0  0  0  0  0  0  0
  -12.1137  -23.8487   31.3074 H   0  0  0  0  0  0  0  0  0  0  0  0
  -13.9210  -21.4067   31.5571 H   0  0  0  0  0  0  0  0  0  0  0  0
  -13.7876  -22.7692   32.6804 H   0  0  0  0  0  0  0  0  0  0  0  0
  -12.3699  -20.4611   33.0486 H   0  0  0  0  0  0  0  0  0  0  0  0
  -11.6597  -22.0284   33.4478 H   0  0  0  0  0  0  0  0  0  0  0  0
  -10.0728  -21.7032   31.8862 H   0  0  0  0  0  0  0  0  0  0  0  0
  -10.8180  -20.2104   31.3151 H   0  0  0  0  0  0  0  0  0  0  0  0
  1  2  2  0
  2  3  1  0
  3  4  1  0
  4  5  1  0
  5  6  1  0
  6  7  2  0
  7  8  1  0
  8  9  2  0
  9 10  1  0
  2 11  1  0
 11 12  1  0
 12 13  1  0
 13 14  1  0
 14 15  1  0
 15 16  2  0
 16 17  1  0
 17 18  1  0
 18 19  1  0
 19 20  1  0
 20 21  1  0
 21 22  1  0
 17 23  1  0
 10  6  1  0
 23 14  2  0
 22 18  1  0
  3 24  1  0
  3 25  1  0
  5 26  1  0
  5 27  1  0
  8 28  1  0
  9 29  1  0
 10 30  1  0
 11 31  1  0
 12 32  1  0
 12 33  1  0
 13 34  1  0
 13 35  1  0
 15 36  1  0
 16 37  1  0
 18 38  1  0
 19 39  1  0
 19 40  1  0
 20 41  1  0
 20 42  1  0
 21 43  1  0
 21 44  1  0
 22 45  1  0
 22 46  1  0
M  END
>  <Energy>  (231) 
413.17967661763521

>  <compound_id>  (231) 
17987

>  <target_id>  (231) 
1

>  <reference_id>  (231) 
96

>  <inspiration_ids>  (231) 
[96, 116]

>  <energy_score>  (231) 
346.6338432926964

>  <distance_score>  (231) 
2.150794739875265

>  <path>  (231) 
/opt/xchem-fragalysis-2/maxwin/BulkDock/SCRATCH/511020/C17987-P96/C17987-P96.minimised.mol

>  <scratch_subdir>  (231) 
/opt/xchem-fragalysis-2/maxwin/BulkDock/SCRATCH/511020/C17987-P96

>  <fragmenstein_runtime>  (231) 
17.04068636894226

>  <fragmenstein_outcome>  (231) 
too moved

>  <fragmenstein_mode>  (231) 
expansion

>  <fragmenstein_error>  (231) 


$$$$
C17987-P116
     RDKit          3D

 46 48  0  0  0  0  0  0  0  0999 V2000
   -4.9986  -20.4747   24.7684 O   0  0  0  0  0  0  0  0  0  0  0  0
   -4.7464  -20.6485   25.8932 C   0  0  0  0  0  0  0  0  0  0  0  0
   -3.0669  -19.5290   26.6783 C   0  0  0  0  0  0  0  0  0  0  0  0
   -1.9136  -17.8508   26.2319 S   0  0  0  0  0  0  0  0  0  0  0  0
   -2.1809  -16.5290   27.4404 C   0  0  0  0  0  0  0  0  0  0  0  0
   -1.3997  -15.3711   28.2144 C   0  0  0  0  0  0  0  0  0  0  0  0
   -0.6555  -15.3996   29.3114 N   0  0  0  0  0  0  0  0  0  0  0  0
   -0.1591  -14.1411   29.5320 C   0  0  0  0  0  0  0  0  0  0  0  0
   -0.6767  -13.2629   28.6238 C   0  0  0  0  0  0  0  0  0  0  0  0
   -1.4865  -14.0242   27.8302 N   0  0  0  0  0  0  0  0  0  0  0  0
   -5.7547  -21.6705   27.0631 N   0  0  0  0  0  0  0  0  0  0  0  0
   -7.3644  -22.4891   26.8462 C   0  0  0  0  0  0  0  0  0  0  0  0
   -8.7276  -23.7521   26.8567 C   0  0  0  0  0  0  0  0  0  0  0  0
  -10.2232  -24.2052   26.0358 C   0  0  0  0  0  0  0  0  0  0  0  0
  -10.8187  -25.4534   26.1080 C   0  0  0  0  0  0  0  0  0  0  0  0
  -11.1534  -25.2062   27.4070 C   0  0  0  0  0  0  0  0  0  0  0  0
  -11.6725  -23.9334   27.4072 N   0  0  0  0  0  0  0  0  0  0  0  0
  -12.1078  -22.8589   28.2566 C   0  0  0  0  0  0  0  0  0  0  0  0
  -12.5077  -22.5552   29.7385 C   0  0  0  0  0  0  0  0  0  0  0  0
  -12.6268  -21.1554   29.8510 C   0  0  0  0  0  0  0  0  0  0  0  0
  -11.2351  -21.1209   29.5197 C   0  0  0  0  0  0  0  0  0  0  0  0
  -10.9817  -21.9418   28.3143 C   0  0  0  0  0  0  0  0  0  0  0  0
  -11.3648  -23.5054   26.1784 N   0  0  0  0  0  0  0  0  0  0  0  0
   -3.4582  -18.9083   27.4989 H   0  0  0  0  0  0  0  0  0  0  0  0
   -2.2113  -19.9609   27.1888 H   0  0  0  0  0  0  0  0  0  0  0  0
   -3.1369  -16.7415   27.8850 H   0  0  0  0  0  0  0  0  0  0  0  0
   -2.3288  -15.8702   26.6004 H   0  0  0  0  0  0  0  0  0  0  0  0
    0.5322  -13.9404   30.3396 H   0  0  0  0  0  0  0  0  0  0  0  0
   -0.5369  -12.2044   28.4588 H   0  0  0  0  0  0  0  0  0  0  0  0
   -1.9627  -13.6872   27.0045 H   0  0  0  0  0  0  0  0  0  0  0  0
   -5.2947  -21.7334   27.9366 H   0  0  0  0  0  0  0  0  0  0  0  0
   -7.9192  -21.6095   27.1966 H   0  0  0  0  0  0  0  0  0  0  0  0
   -7.2294  -22.7614   27.9071 H   0  0  0  0  0  0  0  0  0  0  0  0
   -8.9721  -23.9993   27.8738 H   0  0  0  0  0  0  0  0  0  0  0  0
   -8.3375  -24.3299   26.0705 H   0  0  0  0  0  0  0  0  0  0  0  0
  -10.5249  -26.4318   25.8084 H   0  0  0  0  0  0  0  0  0  0  0  0
  -10.9652  -25.8793   28.2100 H   0  0  0  0  0  0  0  0  0  0  0  0
  -12.8412  -22.3567   27.6113 H   0  0  0  0  0  0  0  0  0  0  0  0
  -13.3247  -23.0334   30.2240 H   0  0  0  0  0  0  0  0  0  0  0  0
  -11.7662  -22.7180   30.5611 H   0  0  0  0  0  0  0  0  0  0  0  0
  -13.1764  -20.5385   29.1847 H   0  0  0  0  0  0  0  0  0  0  0  0
  -12.7606  -21.0026   30.9003 H   0  0  0  0  0  0  0  0  0  0  0  0
  -10.9363  -20.1632   29.4420 H   0  0  0  0  0  0  0  0  0  0  0  0
  -10.7551  -21.3435   30.4468 H   0  0  0  0  0  0  0  0  0  0  0  0
  -10.0667  -22.4798   28.3805 H   0  0  0  0  0  0  0  0  0  0  0  0
  -11.0134  -21.4150   27.3794 H   0  0  0  0  0  0  0  0  0  0  0  0
  1  2  2  0
  2  3  1  0
  3  4  1  0
  4  5  1  0
  5  6  1  0
  6  7  2  0
  7  8  1  0
  8  9  2  0
  9 10  1  0
  2 11  1  0
 11 12  1  0
 12 13  1  0
 13 14  1  0
 14 15  1  0
 15 16  2  0
 16 17  1  0
 17 18  1  0
 18 19  1  0
 19 20  1  0
 20 21  1  0
 21 22  1  0
 17 23  1  0
 10  6  1  0
 23 14  2  0
 22 18  1  0
  3 24  1  0
  3 25  1  0
  5 26  1  0
  5 27  1  0
  8 28  1  0
  9 29  1  0
 10 30  1  0
 11 31  1  0
 12 32  1  0
 12 33  1  0
 13 34  1  0
 13 35  1  0
 15 36  1  0
 16 37  1  0
 18 38  1  0
 19 39  1  0
 19 40  1  0
 20 41  1  0
 20 42  1  0
 21 43  1  0
 21 44  1  0
 22 45  1  0
 22 46  1  0
M  END
>  <Energy>  (232) 
691.34055192734775

>  <compound_id>  (232) 
17987

>  <target_id>  (232) 
1

>  <reference_id>  (232) 
116

>  <inspiration_ids>  (232) 
[96, 116]

>  <energy_score>  (232) 
624.79471860242

>  <distance_score>  (232) 
2.2674690154993864

>  <path>  (232) 
/opt/xchem-fragalysis-2/maxwin/BulkDock/SCRATCH/511020/C17987-P116/C17987-P116.minimised.mol

>  <scratch_subdir>  (232) 
/opt/xchem-fragalysis-2/maxwin/BulkDock/SCRATCH/511020/C17987-P116

>  <fragmenstein_runtime>  (232) 
17.41613745689392

>  <fragmenstein_outcome>  (232) 
too moved

>  <fragmenstein_mode>  (232) 
expansion

>  <fragmenstein_error>  (232) 


$$$$
C48744-P96
     RDKit          3D

 50 53  0  0  0  0  0  0  0  0999 V2000
   -8.8640  -22.6890   27.7033 C   0  0  0  0  0  0  0  0  0  0  0  0
  -10.0478  -22.9981   28.2961 C   0  0  0  0  0  0  0  0  0  0  0  0
  -10.2352  -21.9135   29.0511 N   0  0  0  0  0  0  0  0  0  0  0  0
  -10.8641  -21.9859   30.3573 C   0  0  0  0  0  0  0  0  0  0  0  0
  -12.1138  -22.8672   30.4386 C   0  0  0  0  0  0  0  0  0  0  0  0
  -12.7251  -22.5111   31.7869 C   0  0  0  0  0  0  0  0  0  0  0  0
  -12.2347  -21.1010   32.1068 C   0  0  0  0  0  0  0  0  0  0  0  0
  -11.3572  -20.6771   30.9304 C   0  0  0  0  0  0  0  0  0  0  0  0
   -9.4268  -20.8687   28.6357 N   0  0  0  0  0  0  0  0  0  0  0  0
   -8.1826  -21.4339   28.1831 C   0  0  0  0  0  0  0  0  0  0  0  0
   -6.5737  -20.4302   27.6355 C   0  0  0  0  0  0  0  0  0  0  0  0
   -5.6056  -18.8342   26.7024 C   0  0  0  0  0  0  0  0  0  0  0  0
   -4.9353  -17.0103   26.8333 N   0  0  0  0  0  0  0  0  0  0  0  0
   -3.4271  -15.8265   26.3693 C   0  0  0  0  0  0  0  0  0  0  0  0
   -3.4731  -14.5013   27.0317 C   0  0  0  0  0  0  0  0  0  0  0  0
   -3.9425  -14.3497   28.2970 N   0  0  0  0  0  0  0  0  0  0  0  0
   -3.1872  -13.4308   28.8678 C   0  0  0  0  0  0  0  0  0  0  0  0
   -2.7648  -12.5742   27.8670 C   0  0  0  0  0  0  0  0  0  0  0  0
   -2.5800  -13.3498   26.7074 N   0  0  0  0  0  0  0  0  0  0  0  0
   -2.9685  -10.9687   28.2618 C   0  0  0  0  0  0  0  0  0  0  0  0
   -1.3240  -11.1049   29.5501 C   0  0  0  0  0  0  0  0  0  0  0  0
   -0.9973  -12.6806   29.6220 C   0  0  0  0  0  0  0  0  0  0  0  0
   -2.3045  -13.4786   30.2207 C   0  0  0  0  0  0  0  0  0  0  0  0
   -8.6529  -23.1855   26.7987 H   0  0  0  0  0  0  0  0  0  0  0  0
  -10.7421  -23.8185   28.1939 H   0  0  0  0  0  0  0  0  0  0  0  0
  -10.1106  -22.4177   31.0321 H   0  0  0  0  0  0  0  0  0  0  0  0
  -11.8843  -23.9360   30.3765 H   0  0  0  0  0  0  0  0  0  0  0  0
  -12.8080  -22.6300   29.6268 H   0  0  0  0  0  0  0  0  0  0  0  0
  -12.3765  -23.2072   32.5585 H   0  0  0  0  0  0  0  0  0  0  0  0
  -13.8165  -22.5715   31.7638 H   0  0  0  0  0  0  0  0  0  0  0  0
  -13.0700  -20.4163   32.2727 H   0  0  0  0  0  0  0  0  0  0  0  0
  -11.6431  -21.1179   33.0299 H   0  0  0  0  0  0  0  0  0  0  0  0
  -10.5500  -20.0123   31.2498 H   0  0  0  0  0  0  0  0  0  0  0  0
  -11.9345  -20.1632   30.1591 H   0  0  0  0  0  0  0  0  0  0  0  0
   -6.0928  -21.2964   27.1564 H   0  0  0  0  0  0  0  0  0  0  0  0
   -7.4256  -19.9097   27.2432 H   0  0  0  0  0  0  0  0  0  0  0  0
   -4.9703  -19.2729   25.8843 H   0  0  0  0  0  0  0  0  0  0  0  0
   -6.4646  -18.4720   26.2418 H   0  0  0  0  0  0  0  0  0  0  0  0
   -5.5280  -16.4978   27.4938 H   0  0  0  0  0  0  0  0  0  0  0  0
   -3.2779  -15.4614   25.3270 H   0  0  0  0  0  0  0  0  0  0  0  0
   -2.5316  -16.4182   26.2005 H   0  0  0  0  0  0  0  0  0  0  0  0
   -2.3361  -13.0766   25.7727 H   0  0  0  0  0  0  0  0  0  0  0  0
   -4.0745  -10.9557   28.4594 H   0  0  0  0  0  0  0  0  0  0  0  0
   -3.1597  -10.0272   27.6907 H   0  0  0  0  0  0  0  0  0  0  0  0
   -0.4820  -10.4678   29.4308 H   0  0  0  0  0  0  0  0  0  0  0  0
   -1.4075  -10.8775   30.6281 H   0  0  0  0  0  0  0  0  0  0  0  0
   -0.0084  -13.0337   29.7916 H   0  0  0  0  0  0  0  0  0  0  0  0
   -0.8716  -13.0001   28.6174 H   0  0  0  0  0  0  0  0  0  0  0  0
   -2.3176  -14.4828   30.6467 H   0  0  0  0  0  0  0  0  0  0  0  0
   -2.5961  -12.9856   31.1510 H   0  0  0  0  0  0  0  0  0  0  0  0
  1  2  2  0
  2  3  1  0
  3  4  1  0
  4  5  1  0
  5  6  1  0
  6  7  1  0
  7  8  1  0
  3  9  1  0
  9 10  2  0
 10 11  1  0
 11 12  1  0
 12 13  1  0
 13 14  1  0
 14 15  1  0
 15 16  2  0
 16 17  1  0
 17 18  2  0
 18 19  1  0
 18 20  1  0
 20 21  1  0
 21 22  1  0
 22 23  1  0
 10  1  1  0
 19 15  1  0
  8  4  1  0
 23 17  1  0
  1 24  1  0
  2 25  1  0
  4 26  1  0
  5 27  1  0
  5 28  1  0
  6 29  1  0
  6 30  1  0
  7 31  1  0
  7 32  1  0
  8 33  1  0
  8 34  1  0
 11 35  1  0
 11 36  1  0
 12 37  1  0
 12 38  1  0
 13 39  1  0
 14 40  1  0
 14 41  1  0
 19 42  1  0
 20 43  1  0
 20 44  1  0
 21 45  1  0
 21 46  1  0
 22 47  1  0
 22 48  1  0
 23 49  1  0
 23 50  1  0
M  END
>  <Energy>  (233) 
724.60621345291815

>  <compound_id>  (233) 
48744

>  <target_id>  (233) 
1

>  <reference_id>  (233) 
96

>  <inspiration_ids>  (233) 
[96, 116]

>  <energy_score>  (233) 
615.7585454351155

>  <distance_score>  (233) 
2.8732705267025564

>  <path>  (233) 
/opt/xchem-fragalysis-2/maxwin/BulkDock/SCRATCH/511020/C48744-P96/C48744-P96.minimised.mol

>  <scratch_subdir>  (233) 
/opt/xchem-fragalysis-2/maxwin/BulkDock/SCRATCH/511020/C48744-P96

>  <fragmenstein_runtime>  (233) 
20.522257089614868

>  <fragmenstein_outcome>  (233) 
too moved

>  <fragmenstein_mode>  (233) 
expansion

>  <fragmenstein_error>  (233) 


$$$$
C48744-P116
     RDKit          3D

 50 53  0  0  0  0  0  0  0  0999 V2000
   -7.7848  -23.3168   26.1913 C   0  0  0  0  0  0  0  0  0  0  0  0
   -8.9224  -24.1430   26.3637 C   0  0  0  0  0  0  0  0  0  0  0  0
   -9.4218  -23.7056   27.4884 N   0  0  0  0  0  0  0  0  0  0  0  0
  -10.8163  -23.9053   27.7772 C   0  0  0  0  0  0  0  0  0  0  0  0
  -11.7084  -24.4818   26.6294 C   0  0  0  0  0  0  0  0  0  0  0  0
  -12.4583  -23.3252   26.0463 C   0  0  0  0  0  0  0  0  0  0  0  0
  -12.2597  -22.2144   27.0274 C   0  0  0  0  0  0  0  0  0  0  0  0
  -11.4466  -22.6189   28.2008 C   0  0  0  0  0  0  0  0  0  0  0  0
   -8.5459  -22.8272   28.0783 N   0  0  0  0  0  0  0  0  0  0  0  0
   -7.5544  -22.5136   27.2672 C   0  0  0  0  0  0  0  0  0  0  0  0
   -6.2224  -21.7903   27.4077 C   0  0  0  0  0  0  0  0  0  0  0  0
   -6.0161  -19.9630   26.7761 C   0  0  0  0  0  0  0  0  0  0  0  0
   -5.2319  -18.6497   27.6985 N   0  0  0  0  0  0  0  0  0  0  0  0
   -3.4731  -17.7930   27.5434 C   0  0  0  0  0  0  0  0  0  0  0  0
   -2.3757  -16.3944   27.7102 C   0  0  0  0  0  0  0  0  0  0  0  0
   -2.6362  -15.1740   28.1261 N   0  0  0  0  0  0  0  0  0  0  0  0
   -1.5675  -14.3692   28.3711 C   0  0  0  0  0  0  0  0  0  0  0  0
   -0.5318  -15.1997   28.5284 C   0  0  0  0  0  0  0  0  0  0  0  0
   -1.0235  -16.3702   27.8636 N   0  0  0  0  0  0  0  0  0  0  0  0
    0.8402  -14.7540   28.9277 C   0  0  0  0  0  0  0  0  0  0  0  0
    0.8234  -13.2805   29.3905 C   0  0  0  0  0  0  0  0  0  0  0  0
   -0.0477  -12.3997   28.4861 C   0  0  0  0  0  0  0  0  0  0  0  0
   -1.5062  -12.8865   28.4670 C   0  0  0  0  0  0  0  0  0  0  0  0
   -7.2408  -23.3565   25.2621 H   0  0  0  0  0  0  0  0  0  0  0  0
   -9.4061  -24.7663   25.6364 H   0  0  0  0  0  0  0  0  0  0  0  0
  -10.7355  -24.6520   28.5283 H   0  0  0  0  0  0  0  0  0  0  0  0
  -12.4698  -25.1795   26.9564 H   0  0  0  0  0  0  0  0  0  0  0  0
  -11.2054  -25.0765   25.8727 H   0  0  0  0  0  0  0  0  0  0  0  0
  -13.5106  -23.5614   25.8769 H   0  0  0  0  0  0  0  0  0  0  0  0
  -12.0806  -23.0235   25.0715 H   0  0  0  0  0  0  0  0  0  0  0  0
  -11.8658  -21.3624   26.5053 H   0  0  0  0  0  0  0  0  0  0  0  0
  -13.1756  -21.9314   27.4797 H   0  0  0  0  0  0  0  0  0  0  0  0
  -12.0886  -22.6900   29.0692 H   0  0  0  0  0  0  0  0  0  0  0  0
  -10.7713  -21.8202   28.4692 H   0  0  0  0  0  0  0  0  0  0  0  0
   -5.6989  -22.1880   28.2732 H   0  0  0  0  0  0  0  0  0  0  0  0
   -5.5996  -22.2378   26.6467 H   0  0  0  0  0  0  0  0  0  0  0  0
   -5.4647  -20.0308   25.8063 H   0  0  0  0  0  0  0  0  0  0  0  0
   -7.0416  -19.7873   26.6832 H   0  0  0  0  0  0  0  0  0  0  0  0
   -5.6752  -17.9747   27.1891 H   0  0  0  0  0  0  0  0  0  0  0  0
   -3.9572  -17.1915   28.2668 H   0  0  0  0  0  0  0  0  0  0  0  0
   -2.7665  -18.5862   27.3164 H   0  0  0  0  0  0  0  0  0  0  0  0
   -0.4252  -17.1319   27.6262 H   0  0  0  0  0  0  0  0  0  0  0  0
    1.5220  -14.8400   28.0751 H   0  0  0  0  0  0  0  0  0  0  0  0
    1.2286  -15.3455   29.7620 H   0  0  0  0  0  0  0  0  0  0  0  0
    0.4374  -13.2262   30.4171 H   0  0  0  0  0  0  0  0  0  0  0  0
    1.8487  -12.8947   29.4165 H   0  0  0  0  0  0  0  0  0  0  0  0
    0.3586  -12.4233   27.4667 H   0  0  0  0  0  0  0  0  0  0  0  0
   -0.0110  -11.3567   28.8202 H   0  0  0  0  0  0  0  0  0  0  0  0
   -2.0074  -12.4358   27.6040 H   0  0  0  0  0  0  0  0  0  0  0  0
   -2.0158  -12.5368   29.3660 H   0  0  0  0  0  0  0  0  0  0  0  0
  1  2  2  0
  2  3  1  0
  3  4  1  0
  4  5  1  0
  5  6  1  0
  6  7  1  0
  7  8  1  0
  3  9  1  0
  9 10  2  0
 10 11  1  0
 11 12  1  0
 12 13  1  0
 13 14  1  0
 14 15  1  0
 15 16  2  0
 16 17  1  0
 17 18  2  0
 18 19  1  0
 18 20  1  0
 20 21  1  0
 21 22  1  0
 22 23  1  0
 10  1  1  0
 19 15  1  0
  8  4  1  0
 23 17  1  0
  1 24  1  0
  2 25  1  0
  4 26  1  0
  5 27  1  0
  5 28  1  0
  6 29  1  0
  6 30  1  0
  7 31  1  0
  7 32  1  0
  8 33  1  0
  8 34  1  0
 11 35  1  0
 11 36  1  0
 12 37  1  0
 12 38  1  0
 13 39  1  0
 14 40  1  0
 14 41  1  0
 19 42  1  0
 20 43  1  0
 20 44  1  0
 21 45  1  0
 21 46  1  0
 22 47  1  0
 22 48  1  0
 23 49  1  0
 23 50  1  0
M  END
>  <Energy>  (234) 
374.38436372321746

>  <compound_id>  (234) 
48744

>  <target_id>  (234) 
1

>  <reference_id>  (234) 
116

>  <inspiration_ids>  (234) 
[96, 116]

>  <energy_score>  (234) 
265.53669570541865

>  <distance_score>  (234) 
3.669683738415595

>  <path>  (234) 
/opt/xchem-fragalysis-2/maxwin/BulkDock/SCRATCH/511020/C48744-P116/C48744-P116.minimised.mol

>  <scratch_subdir>  (234) 
/opt/xchem-fragalysis-2/maxwin/BulkDock/SCRATCH/511020/C48744-P116

>  <fragmenstein_runtime>  (234) 
16.028092622756958

>  <fragmenstein_outcome>  (234) 
too moved

>  <fragmenstein_mode>  (234) 
expansion

>  <fragmenstein_error>  (234) 


$$$$
C17992-P96
     RDKit          3D

 45 47  0  0  0  0  0  0  0  0999 V2000
   -3.7380  -18.6423   24.3736 C   0  0  0  0  0  0  0  0  0  0  0  0
   -5.0706  -18.5120   24.6315 C   0  0  0  0  0  0  0  0  0  0  0  0
   -6.3101  -18.1579   23.1196 C   0  0  0  0  0  0  0  0  0  0  0  0
   -5.8583  -18.5976   26.5170 C   0  0  0  0  0  0  0  0  0  0  0  0
   -6.4560  -20.3537   27.4854 N   0  0  0  0  0  0  0  0  0  0  0  0
   -8.1304  -20.9350   28.1037 C   0  0  0  0  0  0  0  0  0  0  0  0
   -9.2011  -20.2581   28.1094 O   0  0  0  0  0  0  0  0  0  0  0  0
   -8.4667  -22.4675   28.5849 C   0  0  0  0  0  0  0  0  0  0  0  0
   -9.3797  -23.1585   27.6884 C   0  0  0  0  0  0  0  0  0  0  0  0
  -10.6441  -23.2487   28.2927 C   0  0  0  0  0  0  0  0  0  0  0  0
  -10.5248  -22.9907   29.5771 N   0  0  0  0  0  0  0  0  0  0  0  0
   -9.1831  -22.9677   29.7227 N   0  0  0  0  0  0  0  0  0  0  0  0
   -8.6429  -23.5717   30.9297 C   0  0  0  0  0  0  0  0  0  0  0  0
   -9.0000  -25.0421   31.0179 C   0  0  0  0  0  0  0  0  0  0  0  0
  -10.3420  -25.0989   31.7137 C   0  0  0  0  0  0  0  0  0  0  0  0
  -10.4928  -23.7689   32.4577 C   0  0  0  0  0  0  0  0  0  0  0  0
   -9.2028  -23.0024   32.2284 C   0  0  0  0  0  0  0  0  0  0  0  0
   -5.0543  -16.7477   26.9458 C   0  0  0  0  0  0  0  0  0  0  0  0
   -5.6305  -15.7926   28.1446 N   0  0  0  0  0  0  0  0  0  0  0  0
   -4.9279  -14.6406   28.3659 C   0  0  0  0  0  0  0  0  0  0  0  0
   -3.8153  -14.4869   27.3828 C   0  0  0  0  0  0  0  0  0  0  0  0
   -3.7417  -15.6089   26.4602 N   0  0  0  0  0  0  0  0  0  0  0  0
   -3.2341  -19.3116   23.6196 H   0  0  0  0  0  0  0  0  0  0  0  0
   -2.8963  -17.9754   24.8147 H   0  0  0  0  0  0  0  0  0  0  0  0
   -4.0659  -19.3154   25.2155 H   0  0  0  0  0  0  0  0  0  0  0  0
   -5.0036  -19.7424   24.2420 H   0  0  0  0  0  0  0  0  0  0  0  0
   -6.2726  -17.2426   22.5585 H   0  0  0  0  0  0  0  0  0  0  0  0
   -6.3731  -19.0299   22.4402 H   0  0  0  0  0  0  0  0  0  0  0  0
   -7.3323  -18.4205   23.2773 H   0  0  0  0  0  0  0  0  0  0  0  0
   -5.0762  -19.3015   26.6614 H   0  0  0  0  0  0  0  0  0  0  0  0
   -5.7970  -21.1230   27.5211 H   0  0  0  0  0  0  0  0  0  0  0  0
   -9.3366  -23.1676   26.6173 H   0  0  0  0  0  0  0  0  0  0  0  0
  -11.6117  -23.4441   27.8492 H   0  0  0  0  0  0  0  0  0  0  0  0
   -7.5684  -23.4634   30.8951 H   0  0  0  0  0  0  0  0  0  0  0  0
   -8.2769  -25.5542   31.6604 H   0  0  0  0  0  0  0  0  0  0  0  0
   -9.0238  -25.5331   30.0432 H   0  0  0  0  0  0  0  0  0  0  0  0
  -11.1631  -25.2362   31.0018 H   0  0  0  0  0  0  0  0  0  0  0  0
  -10.3322  -25.9764   32.3599 H   0  0  0  0  0  0  0  0  0  0  0  0
  -11.3552  -23.2163   32.0680 H   0  0  0  0  0  0  0  0  0  0  0  0
  -10.6552  -23.8691   33.5269 H   0  0  0  0  0  0  0  0  0  0  0  0
   -9.3904  -21.9268   32.2180 H   0  0  0  0  0  0  0  0  0  0  0  0
   -8.5048  -23.2118   33.0487 H   0  0  0  0  0  0  0  0  0  0  0  0
   -5.4174  -13.9883   29.0546 H   0  0  0  0  0  0  0  0  0  0  0  0
   -3.1594  -13.6527   27.1284 H   0  0  0  0  0  0  0  0  0  0  0  0
   -3.0416  -15.9365   25.8081 H   0  0  0  0  0  0  0  0  0  0  0  0
  1  2  1  0
  2  3  1  0
  2  4  1  0
  4  5  1  0
  5  6  1  0
  6  7  2  0
  6  8  1  0
  8  9  2  0
  9 10  1  0
 10 11  2  0
 11 12  1  0
 12 13  1  0
 13 14  1  0
 14 15  1  0
 15 16  1  0
 16 17  1  0
  4 18  1  0
 18 19  2  0
 19 20  1  0
 20 21  2  0
 21 22  1  0
 12  8  1  0
 17 13  1  0
 22 18  1  0
  1 23  1  0
  1 24  1  0
  1 25  1  0
  2 26  1  0
  3 27  1  0
  3 28  1  0
  3 29  1  0
  4 30  1  0
  5 31  1  0
  9 32  1  0
 10 33  1  0
 13 34  1  0
 14 35  1  0
 14 36  1  0
 15 37  1  0
 15 38  1  0
 16 39  1  0
 16 40  1  0
 17 41  1  0
 17 42  1  0
 20 43  1  0
 21 44  1  0
 22 45  1  0
M  END
>  <Energy>  (235) 
733.220170649887

>  <compound_id>  (235) 
17992

>  <target_id>  (235) 
1

>  <reference_id>  (235) 
96

>  <inspiration_ids>  (235) 
[96, 116]

>  <energy_score>  (235) 
724.2087568841009

>  <distance_score>  (235) 
3.8520787410636017

>  <path>  (235) 
/opt/xchem-fragalysis-2/maxwin/BulkDock/SCRATCH/511020/C17992-P96/C17992-P96.minimised.mol

>  <scratch_subdir>  (235) 
/opt/xchem-fragalysis-2/maxwin/BulkDock/SCRATCH/511020/C17992-P96

>  <fragmenstein_runtime>  (235) 
20.47988533973694

>  <fragmenstein_outcome>  (235) 
too moved

>  <fragmenstein_mode>  (235) 
expansion

>  <fragmenstein_error>  (235) 


$$$$
C17992-P116
     RDKit          3D

 45 47  0  0  0  0  0  0  0  0999 V2000
   -1.6766  -18.2716   27.8365 C   0  0  0  0  0  0  0  0  0  0  0  0
   -2.9154  -18.4108   27.0786 C   0  0  0  0  0  0  0  0  0  0  0  0
   -2.1684  -17.8487   25.8544 C   0  0  0  0  0  0  0  0  0  0  0  0
   -4.9312  -18.2063   27.6229 C   0  0  0  0  0  0  0  0  0  0  0  0
   -5.7764  -20.0397   26.9470 N   0  0  0  0  0  0  0  0  0  0  0  0
   -7.4465  -20.9323   27.3807 C   0  0  0  0  0  0  0  0  0  0  0  0
   -8.2925  -20.4245   28.0504 O   0  0  0  0  0  0  0  0  0  0  0  0
   -7.8346  -22.3632   27.1139 C   0  0  0  0  0  0  0  0  0  0  0  0
   -7.8007  -23.3409   26.2070 C   0  0  0  0  0  0  0  0  0  0  0  0
   -9.0327  -24.2290   26.3775 C   0  0  0  0  0  0  0  0  0  0  0  0
   -9.4899  -24.2035   27.5941 N   0  0  0  0  0  0  0  0  0  0  0  0
   -9.1721  -22.9762   27.9489 N   0  0  0  0  0  0  0  0  0  0  0  0
  -10.5117  -22.3236   28.1601 C   0  0  0  0  0  0  0  0  0  0  0  0
  -11.5839  -23.0774   27.3972 C   0  0  0  0  0  0  0  0  0  0  0  0
  -12.5900  -22.0406   27.4507 C   0  0  0  0  0  0  0  0  0  0  0  0
  -12.5672  -21.4643   28.8787 C   0  0  0  0  0  0  0  0  0  0  0  0
  -11.2537  -21.8737   29.4071 C   0  0  0  0  0  0  0  0  0  0  0  0
   -3.4782  -16.7700   27.8981 C   0  0  0  0  0  0  0  0  0  0  0  0
   -2.4138  -16.1452   27.0803 N   0  0  0  0  0  0  0  0  0  0  0  0
   -1.9840  -14.8517   27.3974 C   0  0  0  0  0  0  0  0  0  0  0  0
   -1.6707  -14.9336   28.6793 C   0  0  0  0  0  0  0  0  0  0  0  0
   -2.9557  -15.3989   28.8321 N   0  0  0  0  0  0  0  0  0  0  0  0
   -0.9997  -17.4914   27.5430 H   0  0  0  0  0  0  0  0  0  0  0  0
   -1.1483  -18.5994   28.7645 H   0  0  0  0  0  0  0  0  0  0  0  0
   -1.6906  -19.4235   27.6877 H   0  0  0  0  0  0  0  0  0  0  0  0
   -2.9491  -19.4283   26.7092 H   0  0  0  0  0  0  0  0  0  0  0  0
   -2.6964  -17.0827   25.3215 H   0  0  0  0  0  0  0  0  0  0  0  0
   -1.1826  -17.3923   25.9117 H   0  0  0  0  0  0  0  0  0  0  0  0
   -1.7539  -18.7123   25.4445 H   0  0  0  0  0  0  0  0  0  0  0  0
   -4.2766  -18.8624   28.0679 H   0  0  0  0  0  0  0  0  0  0  0  0
   -5.2149  -20.6513   26.2551 H   0  0  0  0  0  0  0  0  0  0  0  0
   -7.2718  -23.3443   25.2697 H   0  0  0  0  0  0  0  0  0  0  0  0
   -9.5065  -24.8558   25.6371 H   0  0  0  0  0  0  0  0  0  0  0  0
  -10.4001  -21.3620   27.7047 H   0  0  0  0  0  0  0  0  0  0  0  0
  -11.8981  -23.9766   27.8911 H   0  0  0  0  0  0  0  0  0  0  0  0
  -11.4101  -23.3435   26.3527 H   0  0  0  0  0  0  0  0  0  0  0  0
  -12.2715  -21.3137   26.7079 H   0  0  0  0  0  0  0  0  0  0  0  0
  -13.4531  -22.5175   27.0325 H   0  0  0  0  0  0  0  0  0  0  0  0
  -12.6916  -20.3924   28.9120 H   0  0  0  0  0  0  0  0  0  0  0  0
  -13.2583  -21.7624   29.6568 H   0  0  0  0  0  0  0  0  0  0  0  0
  -11.4133  -22.5732   30.1949 H   0  0  0  0  0  0  0  0  0  0  0  0
  -10.8759  -21.0055   29.9025 H   0  0  0  0  0  0  0  0  0  0  0  0
   -1.8210  -14.0459   26.6916 H   0  0  0  0  0  0  0  0  0  0  0  0
   -1.1486  -14.2913   29.3695 H   0  0  0  0  0  0  0  0  0  0  0  0
   -3.4249  -15.2266   29.6989 H   0  0  0  0  0  0  0  0  0  0  0  0
  1  2  1  0
  2  3  1  0
  2  4  1  0
  4  5  1  0
  5  6  1  0
  6  7  2  0
  6  8  1  0
  8  9  2  0
  9 10  1  0
 10 11  2  0
 11 12  1  0
 12 13  1  0
 13 14  1  0
 14 15  1  0
 15 16  1  0
 16 17  1  0
  4 18  1  0
 18 19  2  0
 19 20  1  0
 20 21  2  0
 21 22  1  0
 12  8  1  0
 17 13  1  0
 22 18  1  0
  1 23  1  0
  1 24  1  0
  1 25  1  0
  2 26  1  0
  3 27  1  0
  3 28  1  0
  3 29  1  0
  4 30  1  0
  5 31  1  0
  9 32  1  0
 10 33  1  0
 13 34  1  0
 14 35  1  0
 14 36  1  0
 15 37  1  0
 15 38  1  0
 16 39  1  0
 16 40  1  0
 17 41  1  0
 17 42  1  0
 20 43  1  0
 21 44  1  0
 22 45  1  0
M  END
>  <Energy>  (236) 
977.03698307907632

>  <compound_id>  (236) 
17992

>  <target_id>  (236) 
1

>  <reference_id>  (236) 
116

>  <inspiration_ids>  (236) 
[96, 116]

>  <energy_score>  (236) 
968.0255693133129

>  <distance_score>  (236) 
3.5882259445541287

>  <path>  (236) 
/opt/xchem-fragalysis-2/maxwin/BulkDock/SCRATCH/511020/C17992-P116/C17992-P116.minimised.mol

>  <scratch_subdir>  (236) 
/opt/xchem-fragalysis-2/maxwin/BulkDock/SCRATCH/511020/C17992-P116

>  <fragmenstein_runtime>  (236) 
22.828563928604126

>  <fragmenstein_outcome>  (236) 
too moved

>  <fragmenstein_mode>  (236) 
expansion

>  <fragmenstein_error>  (236) 


$$$$
C17993-P96
     RDKit          3D

 36 38  0  0  0  0  0  0  0  0999 V2000
   -6.2269  -21.6948   27.3538 O   0  0  0  0  0  0  0  0  0  0  0  0
   -7.0021  -20.8468   27.6195 C   0  0  0  0  0  0  0  0  0  0  0  0
   -6.8223  -19.2412   27.2904 N   0  0  0  0  0  0  0  0  0  0  0  0
   -5.6044  -18.3965   26.4200 C   0  0  0  0  0  0  0  0  0  0  0  0
   -5.0032  -16.6361   26.9233 C   0  0  0  0  0  0  0  0  0  0  0  0
   -3.8524  -15.5658   26.4928 N   0  0  0  0  0  0  0  0  0  0  0  0
   -3.8942  -14.4617   27.5354 C   0  0  0  0  0  0  0  0  0  0  0  0
   -5.0163  -14.5868   28.4826 C   0  0  0  0  0  0  0  0  0  0  0  0
   -5.6782  -15.7163   28.2275 N   0  0  0  0  0  0  0  0  0  0  0  0
   -8.5235  -21.5888   28.3240 C   0  0  0  0  0  0  0  0  0  0  0  0
   -8.8647  -22.9779   28.7009 C   0  0  0  0  0  0  0  0  0  0  0  0
  -10.1837  -23.0422   29.0609 C   0  0  0  0  0  0  0  0  0  0  0  0
  -10.5493  -21.7499   29.2010 N   0  0  0  0  0  0  0  0  0  0  0  0
  -11.4881  -21.2653   30.2030 C   0  0  0  0  0  0  0  0  0  0  0  0
  -10.8440  -20.8168   31.5281 C   0  0  0  0  0  0  0  0  0  0  0  0
  -11.9333  -20.9057   32.5996 C   0  0  0  0  0  0  0  0  0  0  0  0
  -13.1035  -21.6275   31.9461 C   0  0  0  0  0  0  0  0  0  0  0  0
  -12.4918  -22.3022   30.7286 C   0  0  0  0  0  0  0  0  0  0  0  0
   -9.7039  -20.8883   28.5627 N   0  0  0  0  0  0  0  0  0  0  0  0
   -7.5628  -18.7481   27.6868 H   0  0  0  0  0  0  0  0  0  0  0  0
   -4.9601  -19.2353   26.0815 H   0  0  0  0  0  0  0  0  0  0  0  0
   -5.8386  -18.1275   25.4488 H   0  0  0  0  0  0  0  0  0  0  0  0
   -3.2454  -13.6008   27.3590 H   0  0  0  0  0  0  0  0  0  0  0  0
   -5.5338  -13.9225   29.1308 H   0  0  0  0  0  0  0  0  0  0  0  0
   -6.2639  -16.3021   28.7848 H   0  0  0  0  0  0  0  0  0  0  0  0
   -8.2835  -23.8814   28.7903 H   0  0  0  0  0  0  0  0  0  0  0  0
  -10.7756  -23.8795   29.3990 H   0  0  0  0  0  0  0  0  0  0  0  0
  -12.0010  -20.4159   29.7462 H   0  0  0  0  0  0  0  0  0  0  0  0
  -10.4226  -19.8104   31.4611 H   0  0  0  0  0  0  0  0  0  0  0  0
  -10.0358  -21.4975   31.8202 H   0  0  0  0  0  0  0  0  0  0  0  0
  -11.5633  -21.4681   33.4647 H   0  0  0  0  0  0  0  0  0  0  0  0
  -12.2311  -19.9182   32.9635 H   0  0  0  0  0  0  0  0  0  0  0  0
  -13.8649  -20.9008   31.6451 H   0  0  0  0  0  0  0  0  0  0  0  0
  -13.5770  -22.3447   32.6234 H   0  0  0  0  0  0  0  0  0  0  0  0
  -11.9928  -23.2189   31.0670 H   0  0  0  0  0  0  0  0  0  0  0  0
  -13.2222  -22.5964   29.9782 H   0  0  0  0  0  0  0  0  0  0  0  0
  1  2  2  0
  2  3  1  0
  3  4  1  0
  4  5  1  0
  5  6  2  0
  6  7  1  0
  7  8  2  0
  8  9  1  0
  2 10  1  0
 10 11  1  0
 11 12  2  0
 12 13  1  0
 13 14  1  0
 14 15  1  0
 15 16  1  0
 16 17  1  0
 17 18  1  0
 13 19  1  0
  9  5  1  0
 19 10  2  0
 18 14  1  0
  3 20  1  0
  4 21  1  0
  4 22  1  0
  7 23  1  0
  8 24  1  0
  9 25  1  0
 11 26  1  0
 12 27  1  0
 14 28  1  0
 15 29  1  0
 15 30  1  0
 16 31  1  0
 16 32  1  0
 17 33  1  0
 17 34  1  0
 18 35  1  0
 18 36  1  0
M  END
>  <Energy>  (237) 
279.66319466317356

>  <compound_id>  (237) 
17993

>  <target_id>  (237) 
1

>  <reference_id>  (237) 
96

>  <inspiration_ids>  (237) 
[96, 116]

>  <energy_score>  (237) 
229.70146898486018

>  <distance_score>  (237) 
3.794187281374165

>  <path>  (237) 
/opt/xchem-fragalysis-2/maxwin/BulkDock/SCRATCH/511020/C17993-P96/C17993-P96.minimised.mol

>  <scratch_subdir>  (237) 
/opt/xchem-fragalysis-2/maxwin/BulkDock/SCRATCH/511020/C17993-P96

>  <fragmenstein_runtime>  (237) 
15.210878849029541

>  <fragmenstein_outcome>  (237) 
too moved

>  <fragmenstein_mode>  (237) 
expansion

>  <fragmenstein_error>  (237) 


$$$$
C17993-P116
     RDKit          3D

 36 38  0  0  0  0  0  0  0  0999 V2000
   -6.1928  -19.3827   25.7230 O   0  0  0  0  0  0  0  0  0  0  0  0
   -5.8620  -19.7505   26.7723 C   0  0  0  0  0  0  0  0  0  0  0  0
   -4.4317  -18.8311   27.6916 N   0  0  0  0  0  0  0  0  0  0  0  0
   -3.2658  -17.4087   27.1486 C   0  0  0  0  0  0  0  0  0  0  0  0
   -2.1952  -16.0049   27.6552 C   0  0  0  0  0  0  0  0  0  0  0  0
   -2.2835  -14.7436   27.1913 N   0  0  0  0  0  0  0  0  0  0  0  0
   -1.4824  -13.8817   27.9282 C   0  0  0  0  0  0  0  0  0  0  0  0
   -0.7186  -14.6318   28.7599 C   0  0  0  0  0  0  0  0  0  0  0  0
   -1.0133  -15.9088   28.3487 N   0  0  0  0  0  0  0  0  0  0  0  0
   -6.6873  -21.3958   27.4601 C   0  0  0  0  0  0  0  0  0  0  0  0
   -6.7156  -22.5684   26.7499 C   0  0  0  0  0  0  0  0  0  0  0  0
   -7.9412  -23.2112   26.8376 C   0  0  0  0  0  0  0  0  0  0  0  0
   -8.6498  -22.7051   27.8406 N   0  0  0  0  0  0  0  0  0  0  0  0
  -10.2384  -23.0236   27.6803 C   0  0  0  0  0  0  0  0  0  0  0  0
  -11.4218  -22.0822   27.1384 C   0  0  0  0  0  0  0  0  0  0  0  0
  -12.2738  -21.5994   28.2739 C   0  0  0  0  0  0  0  0  0  0  0  0
  -11.6456  -22.1435   29.4619 C   0  0  0  0  0  0  0  0  0  0  0  0
  -11.0489  -23.3437   28.7900 C   0  0  0  0  0  0  0  0  0  0  0  0
   -8.0531  -21.4210   27.6761 N   0  0  0  0  0  0  0  0  0  0  0  0
   -4.2335  -19.2639   28.4158 H   0  0  0  0  0  0  0  0  0  0  0  0
   -2.3917  -18.0697   27.1739 H   0  0  0  0  0  0  0  0  0  0  0  0
   -3.7831  -17.0027   28.0083 H   0  0  0  0  0  0  0  0  0  0  0  0
   -1.4950  -12.8126   27.7597 H   0  0  0  0  0  0  0  0  0  0  0  0
    0.0938  -14.4045   29.4336 H   0  0  0  0  0  0  0  0  0  0  0  0
   -0.3659  -16.6648   28.4634 H   0  0  0  0  0  0  0  0  0  0  0  0
   -6.0643  -22.7882   25.9334 H   0  0  0  0  0  0  0  0  0  0  0  0
   -8.3906  -24.0077   26.2614 H   0  0  0  0  0  0  0  0  0  0  0  0
  -10.2085  -23.9230   27.0405 H   0  0  0  0  0  0  0  0  0  0  0  0
  -12.0434  -22.7219   26.4831 H   0  0  0  0  0  0  0  0  0  0  0  0
  -11.2389  -21.2432   26.5279 H   0  0  0  0  0  0  0  0  0  0  0  0
  -12.5216  -20.5884   28.5324 H   0  0  0  0  0  0  0  0  0  0  0  0
  -13.2036  -21.9789   27.9635 H   0  0  0  0  0  0  0  0  0  0  0  0
  -10.9582  -21.4114   29.8494 H   0  0  0  0  0  0  0  0  0  0  0  0
  -12.3811  -22.3006   30.2421 H   0  0  0  0  0  0  0  0  0  0  0  0
  -10.5080  -24.0414   29.3266 H   0  0  0  0  0  0  0  0  0  0  0  0
  -11.8592  -23.8906   28.3006 H   0  0  0  0  0  0  0  0  0  0  0  0
  1  2  2  0
  2  3  1  0
  3  4  1  0
  4  5  1  0
  5  6  2  0
  6  7  1  0
  7  8  2  0
  8  9  1  0
  2 10  1  0
 10 11  1  0
 11 12  2  0
 12 13  1  0
 13 14  1  0
 14 15  1  0
 15 16  1  0
 16 17  1  0
 17 18  1  0
 13 19  1  0
  9  5  1  0
 19 10  2  0
 18 14  1  0
  3 20  1  0
  4 21  1  0
  4 22  1  0
  7 23  1  0
  8 24  1  0
  9 25  1  0
 11 26  1  0
 12 27  1  0
 14 28  1  0
 15 29  1  0
 15 30  1  0
 16 31  1  0
 16 32  1  0
 17 33  1  0
 17 34  1  0
 18 35  1  0
 18 36  1  0
M  END
>  <Energy>  (238) 
510.22247248502913

>  <compound_id>  (238) 
17993

>  <target_id>  (238) 
1

>  <reference_id>  (238) 
116

>  <inspiration_ids>  (238) 
[96, 116]

>  <energy_score>  (238) 
460.2607468067066

>  <distance_score>  (238) 
3.8894477473953937

>  <path>  (238) 
/opt/xchem-fragalysis-2/maxwin/BulkDock/SCRATCH/511020/C17993-P116/C17993-P116.minimised.mol

>  <scratch_subdir>  (238) 
/opt/xchem-fragalysis-2/maxwin/BulkDock/SCRATCH/511020/C17993-P116

>  <fragmenstein_runtime>  (238) 
14.580634832382202

>  <fragmenstein_outcome>  (238) 
too moved

>  <fragmenstein_mode>  (238) 
expansion

>  <fragmenstein_error>  (238) 


$$$$
C48746-P96
     RDKit          3D

 46 49  0  0  0  0  0  0  0  0999 V2000
   -5.9313  -21.5929   27.2948 O   0  0  0  0  0  0  0  0  0  0  0  0
   -6.7672  -20.7800   27.5721 C   0  0  0  0  0  0  0  0  0  0  0  0
   -6.6571  -19.0768   27.2374 N   0  0  0  0  0  0  0  0  0  0  0  0
   -5.2800  -18.0278   26.3752 C   0  0  0  0  0  0  0  0  0  0  0  0
   -3.4412  -16.8575   26.6544 C   0  0  0  0  0  0  0  0  0  0  0  0
   -2.0964  -17.0371   25.8596 N   0  0  0  0  0  0  0  0  0  0  0  0
   -1.2155  -15.7837   26.0988 C   0  0  0  0  0  0  0  0  0  0  0  0
   -2.1567  -14.7652   26.2825 C   0  0  0  0  0  0  0  0  0  0  0  0
   -3.3612  -15.3482   26.4360 N   0  0  0  0  0  0  0  0  0  0  0  0
   -1.8395  -13.1654   27.0510 C   0  0  0  0  0  0  0  0  0  0  0  0
   -0.8395  -13.1047   28.6101 C   0  0  0  0  0  0  0  0  0  0  0  0
    0.6433  -14.0952   28.3063 C   0  0  0  0  0  0  0  0  0  0  0  0
    0.4983  -15.3479   26.8080 C   0  0  0  0  0  0  0  0  0  0  0  0
   -8.2900  -21.5909   28.2784 C   0  0  0  0  0  0  0  0  0  0  0  0
   -8.5775  -22.9796   28.7873 C   0  0  0  0  0  0  0  0  0  0  0  0
   -9.9011  -23.2440   28.5493 C   0  0  0  0  0  0  0  0  0  0  0  0
  -10.3914  -22.0285   28.9324 N   0  0  0  0  0  0  0  0  0  0  0  0
  -11.0367  -22.0025   30.2447 C   0  0  0  0  0  0  0  0  0  0  0  0
  -11.5491  -20.6794   30.7529 C   0  0  0  0  0  0  0  0  0  0  0  0
  -12.5468  -21.0530   31.8617 C   0  0  0  0  0  0  0  0  0  0  0  0
  -12.7994  -22.5512   31.7453 C   0  0  0  0  0  0  0  0  0  0  0  0
  -12.2444  -22.9314   30.3855 C   0  0  0  0  0  0  0  0  0  0  0  0
   -9.5648  -21.0092   28.4923 N   0  0  0  0  0  0  0  0  0  0  0  0
   -7.4314  -18.6148   27.6404 H   0  0  0  0  0  0  0  0  0  0  0  0
   -4.9331  -19.0440   25.8978 H   0  0  0  0  0  0  0  0  0  0  0  0
   -5.6573  -17.9608   25.3874 H   0  0  0  0  0  0  0  0  0  0  0  0
   -3.9781  -14.7853   26.9676 H   0  0  0  0  0  0  0  0  0  0  0  0
   -1.4463  -12.6930   26.2293 H   0  0  0  0  0  0  0  0  0  0  0  0
   -2.7442  -12.8288   27.5019 H   0  0  0  0  0  0  0  0  0  0  0  0
   -0.6213  -12.1279   29.0213 H   0  0  0  0  0  0  0  0  0  0  0  0
   -1.4582  -13.2397   29.5032 H   0  0  0  0  0  0  0  0  0  0  0  0
    0.6442  -14.8202   29.1566 H   0  0  0  0  0  0  0  0  0  0  0  0
    1.5329  -13.7218   28.7244 H   0  0  0  0  0  0  0  0  0  0  0  0
    1.3028  -15.1901   26.0992 H   0  0  0  0  0  0  0  0  0  0  0  0
    0.4286  -16.1973   27.4897 H   0  0  0  0  0  0  0  0  0  0  0  0
   -7.9169  -23.7631   29.1436 H   0  0  0  0  0  0  0  0  0  0  0  0
  -10.4667  -24.1593   28.6464 H   0  0  0  0  0  0  0  0  0  0  0  0
  -10.2759  -22.3563   30.9585 H   0  0  0  0  0  0  0  0  0  0  0  0
  -12.0266  -20.1425   29.9317 H   0  0  0  0  0  0  0  0  0  0  0  0
  -10.7445  -20.0454   31.1385 H   0  0  0  0  0  0  0  0  0  0  0  0
  -12.1439  -20.8069   32.8503 H   0  0  0  0  0  0  0  0  0  0  0  0
  -13.4919  -20.5140   31.7547 H   0  0  0  0  0  0  0  0  0  0  0  0
  -12.2508  -23.0790   32.5349 H   0  0  0  0  0  0  0  0  0  0  0  0
  -13.8568  -22.8082   31.8517 H   0  0  0  0  0  0  0  0  0  0  0  0
  -12.9690  -22.7447   29.5906 H   0  0  0  0  0  0  0  0  0  0  0  0
  -11.9816  -23.9933   30.3569 H   0  0  0  0  0  0  0  0  0  0  0  0
  1  2  2  0
  2  3  1  0
  3  4  1  0
  4  5  1  0
  5  6  2  0
  6  7  1  0
  7  8  2  0
  8  9  1  0
  8 10  1  0
 10 11  1  0
 11 12  1  0
 12 13  1  0
  2 14  1  0
 14 15  1  0
 15 16  2  0
 16 17  1  0
 17 18  1  0
 18 19  1  0
 19 20  1  0
 20 21  1  0
 21 22  1  0
 17 23  1  0
  9  5  1  0
 23 14  2  0
 13  7  1  0
 22 18  1  0
  3 24  1  0
  4 25  1  0
  4 26  1  0
  9 27  1  0
 10 28  1  0
 10 29  1  0
 11 30  1  0
 11 31  1  0
 12 32  1  0
 12 33  1  0
 13 34  1  0
 13 35  1  0
 15 36  1  0
 16 37  1  0
 18 38  1  0
 19 39  1  0
 19 40  1  0
 20 41  1  0
 20 42  1  0
 21 43  1  0
 21 44  1  0
 22 45  1  0
 22 46  1  0
M  END
>  <Energy>  (239) 
687.92186009366469

>  <compound_id>  (239) 
48746

>  <target_id>  (239) 
1

>  <reference_id>  (239) 
96

>  <inspiration_ids>  (239) 
[96, 116]

>  <energy_score>  (239) 
628.0244390978164

>  <distance_score>  (239) 
3.489545733230844

>  <path>  (239) 
/opt/xchem-fragalysis-2/maxwin/BulkDock/SCRATCH/511020/C48746-P96/C48746-P96.minimised.mol

>  <scratch_subdir>  (239) 
/opt/xchem-fragalysis-2/maxwin/BulkDock/SCRATCH/511020/C48746-P96

>  <fragmenstein_runtime>  (239) 
24.877407789230347

>  <fragmenstein_outcome>  (239) 
too moved

>  <fragmenstein_mode>  (239) 
expansion

>  <fragmenstein_error>  (239) 


$$$$
C48746-P116
     RDKit          3D

 46 49  0  0  0  0  0  0  0  0999 V2000
   -5.2874  -20.5397   26.0002 O   0  0  0  0  0  0  0  0  0  0  0  0
   -5.9839  -20.1691   26.9223 C   0  0  0  0  0  0  0  0  0  0  0  0
   -5.4945  -18.5690   27.7468 N   0  0  0  0  0  0  0  0  0  0  0  0
   -3.9109  -17.3722   27.5171 C   0  0  0  0  0  0  0  0  0  0  0  0
   -2.4688  -16.1323   27.7634 C   0  0  0  0  0  0  0  0  0  0  0  0
   -1.2483  -16.2372   28.2691 N   0  0  0  0  0  0  0  0  0  0  0  0
   -0.8222  -15.0085   28.7765 C   0  0  0  0  0  0  0  0  0  0  0  0
   -1.4480  -14.0551   28.0566 C   0  0  0  0  0  0  0  0  0  0  0  0
   -2.2557  -14.8039   27.2342 N   0  0  0  0  0  0  0  0  0  0  0  0
   -1.1172  -12.6204   27.9814 C   0  0  0  0  0  0  0  0  0  0  0  0
   -0.2202  -12.2355   29.1729 C   0  0  0  0  0  0  0  0  0  0  0  0
    0.8567  -13.2997   29.4669 C   0  0  0  0  0  0  0  0  0  0  0  0
    0.2511  -14.6928   29.7582 C   0  0  0  0  0  0  0  0  0  0  0  0
   -7.2908  -21.5565   27.3490 C   0  0  0  0  0  0  0  0  0  0  0  0
   -7.0856  -22.7019   26.5440 C   0  0  0  0  0  0  0  0  0  0  0  0
   -8.1700  -23.5371   26.5315 C   0  0  0  0  0  0  0  0  0  0  0  0
   -8.8179  -23.2883   27.6221 N   0  0  0  0  0  0  0  0  0  0  0  0
  -10.1917  -23.7707   27.7821 C   0  0  0  0  0  0  0  0  0  0  0  0
  -11.1870  -22.6677   28.0653 C   0  0  0  0  0  0  0  0  0  0  0  0
  -12.3630  -23.0612   27.2524 C   0  0  0  0  0  0  0  0  0  0  0  0
  -11.9806  -23.8787   26.0908 C   0  0  0  0  0  0  0  0  0  0  0  0
  -10.8189  -24.6513   26.6386 C   0  0  0  0  0  0  0  0  0  0  0  0
   -8.2213  -22.1743   28.0695 N   0  0  0  0  0  0  0  0  0  0  0  0
   -6.2147  -18.3375   28.4416 H   0  0  0  0  0  0  0  0  0  0  0  0
   -3.1492  -18.1498   27.5525 H   0  0  0  0  0  0  0  0  0  0  0  0
   -4.2441  -16.8625   28.4067 H   0  0  0  0  0  0  0  0  0  0  0  0
   -2.6465  -14.4087   26.3995 H   0  0  0  0  0  0  0  0  0  0  0  0
   -0.5805  -12.4205   27.0486 H   0  0  0  0  0  0  0  0  0  0  0  0
   -2.0255  -12.0209   27.9857 H   0  0  0  0  0  0  0  0  0  0  0  0
    0.2531  -11.2668   28.9759 H   0  0  0  0  0  0  0  0  0  0  0  0
   -0.8395  -12.1087   30.0684 H   0  0  0  0  0  0  0  0  0  0  0  0
    1.4692  -12.9834   30.3189 H   0  0  0  0  0  0  0  0  0  0  0  0
    1.5261  -13.3721   28.5998 H   0  0  0  0  0  0  0  0  0  0  0  0
    1.0601  -15.4195   29.7725 H   0  0  0  0  0  0  0  0  0  0  0  0
   -0.1869  -14.6895   30.7631 H   0  0  0  0  0  0  0  0  0  0  0  0
   -6.2683  -22.8111   25.8482 H   0  0  0  0  0  0  0  0  0  0  0  0
   -8.4875  -24.2880   25.8369 H   0  0  0  0  0  0  0  0  0  0  0  0
  -10.1445  -24.4647   28.5942 H   0  0  0  0  0  0  0  0  0  0  0  0
  -10.8685  -21.6888   27.7507 H   0  0  0  0  0  0  0  0  0  0  0  0
  -11.4260  -22.5407   29.1211 H   0  0  0  0  0  0  0  0  0  0  0  0
  -12.8890  -23.7892   27.8182 H   0  0  0  0  0  0  0  0  0  0  0  0
  -12.9649  -22.2179   26.9964 H   0  0  0  0  0  0  0  0  0  0  0  0
  -12.8044  -24.5397   25.7985 H   0  0  0  0  0  0  0  0  0  0  0  0
  -11.7429  -23.2431   25.2484 H   0  0  0  0  0  0  0  0  0  0  0  0
  -10.1977  -24.9609   25.8095 H   0  0  0  0  0  0  0  0  0  0  0  0
  -11.1794  -25.5913   27.0722 H   0  0  0  0  0  0  0  0  0  0  0  0
  1  2  2  0
  2  3  1  0
  3  4  1  0
  4  5  1  0
  5  6  2  0
  6  7  1  0
  7  8  2  0
  8  9  1  0
  8 10  1  0
 10 11  1  0
 11 12  1  0
 12 13  1  0
  2 14  1  0
 14 15  1  0
 15 16  2  0
 16 17  1  0
 17 18  1  0
 18 19  1  0
 19 20  1  0
 20 21  1  0
 21 22  1  0
 17 23  1  0
  9  5  1  0
 23 14  2  0
 13  7  1  0
 22 18  1  0
  3 24  1  0
  4 25  1  0
  4 26  1  0
  9 27  1  0
 10 28  1  0
 10 29  1  0
 11 30  1  0
 11 31  1  0
 12 32  1  0
 12 33  1  0
 13 34  1  0
 13 35  1  0
 15 36  1  0
 16 37  1  0
 18 38  1  0
 19 39  1  0
 19 40  1  0
 20 41  1  0
 20 42  1  0
 21 43  1  0
 21 44  1  0
 22 45  1  0
 22 46  1  0
M  END
>  <Energy>  (240) 
503.27445625917676

>  <compound_id>  (240) 
48746

>  <target_id>  (240) 
1

>  <reference_id>  (240) 
116

>  <inspiration_ids>  (240) 
[96, 116]

>  <energy_score>  (240) 
443.37703526333667

>  <distance_score>  (240) 
3.7462458362589297

>  <path>  (240) 
/opt/xchem-fragalysis-2/maxwin/BulkDock/SCRATCH/511020/C48746-P116/C48746-P116.minimised.mol

>  <scratch_subdir>  (240) 
/opt/xchem-fragalysis-2/maxwin/BulkDock/SCRATCH/511020/C48746-P116

>  <fragmenstein_runtime>  (240) 
18.94492769241333

>  <fragmenstein_outcome>  (240) 
too moved

>  <fragmenstein_mode>  (240) 
expansion

>  <fragmenstein_error>  (240) 


$$$$
C17995-P96
     RDKit          3D

 43 45  0  0  0  0  0  0  0  0999 V2000
   -6.6766  -15.7691   27.6033 C   0  0  0  0  0  0  0  0  0  0  0  0
   -5.0463  -16.7405   26.9657 C   0  0  0  0  0  0  0  0  0  0  0  0
   -5.4596  -18.4944   26.3767 N   0  0  0  0  0  0  0  0  0  0  0  0
   -5.4967  -20.1073   27.3068 C   0  0  0  0  0  0  0  0  0  0  0  0
   -6.9580  -21.2627   27.4144 C   0  0  0  0  0  0  0  0  0  0  0  0
   -8.3983  -22.0241   28.3602 C   0  0  0  0  0  0  0  0  0  0  0  0
   -8.5101  -23.3211   29.0891 C   0  0  0  0  0  0  0  0  0  0  0  0
   -9.7865  -23.4717   29.5369 C   0  0  0  0  0  0  0  0  0  0  0  0
  -10.3816  -22.2881   29.2630 N   0  0  0  0  0  0  0  0  0  0  0  0
  -11.5004  -21.7539   30.0232 C   0  0  0  0  0  0  0  0  0  0  0  0
  -11.0606  -21.1135   31.3588 C   0  0  0  0  0  0  0  0  0  0  0  0
  -12.1226  -21.5064   32.3740 C   0  0  0  0  0  0  0  0  0  0  0  0
  -12.4609  -22.9242   31.9538 C   0  0  0  0  0  0  0  0  0  0  0  0
  -12.5384  -22.8134   30.4373 C   0  0  0  0  0  0  0  0  0  0  0  0
   -9.6504  -21.4747   28.4521 N   0  0  0  0  0  0  0  0  0  0  0  0
   -3.6443  -15.4180   26.5170 C   0  0  0  0  0  0  0  0  0  0  0  0
   -2.6060  -15.1917   25.7727 N   0  0  0  0  0  0  0  0  0  0  0  0
   -2.3741  -13.7144   25.9537 C   0  0  0  0  0  0  0  0  0  0  0  0
   -2.6851  -13.2355   27.1276 C   0  0  0  0  0  0  0  0  0  0  0  0
   -3.6683  -14.3177   27.4264 N   0  0  0  0  0  0  0  0  0  0  0  0
   -6.0462  -15.1183   28.2964 H   0  0  0  0  0  0  0  0  0  0  0  0
   -7.4474  -15.2248   27.0470 H   0  0  0  0  0  0  0  0  0  0  0  0
   -7.5961  -16.4296   27.8614 H   0  0  0  0  0  0  0  0  0  0  0  0
   -5.4846  -16.6233   26.1442 H   0  0  0  0  0  0  0  0  0  0  0  0
   -5.0127  -18.5908   25.4575 H   0  0  0  0  0  0  0  0  0  0  0  0
   -4.6274  -20.4394   27.7892 H   0  0  0  0  0  0  0  0  0  0  0  0
   -5.0313  -20.6731   26.4834 H   0  0  0  0  0  0  0  0  0  0  0  0
   -6.2358  -21.8082   27.9813 H   0  0  0  0  0  0  0  0  0  0  0  0
   -7.4376  -20.3401   27.6201 H   0  0  0  0  0  0  0  0  0  0  0  0
   -7.7562  -24.0647   29.3008 H   0  0  0  0  0  0  0  0  0  0  0  0
  -10.2374  -24.2493   30.1354 H   0  0  0  0  0  0  0  0  0  0  0  0
  -11.9628  -21.0024   29.3791 H   0  0  0  0  0  0  0  0  0  0  0  0
  -10.1058  -21.5213   31.7075 H   0  0  0  0  0  0  0  0  0  0  0  0
  -10.9435  -20.0304   31.2773 H   0  0  0  0  0  0  0  0  0  0  0  0
  -11.7560  -21.4518   33.4031 H   0  0  0  0  0  0  0  0  0  0  0  0
  -13.0007  -20.8568   32.2837 H   0  0  0  0  0  0  0  0  0  0  0  0
  -11.6624  -23.6145   32.2483 H   0  0  0  0  0  0  0  0  0  0  0  0
  -13.4001  -23.2743   32.3911 H   0  0  0  0  0  0  0  0  0  0  0  0
  -13.5202  -22.4251   30.2022 H   0  0  0  0  0  0  0  0  0  0  0  0
  -12.4537  -23.7813   29.9359 H   0  0  0  0  0  0  0  0  0  0  0  0
   -2.3627  -13.0560   25.0847 H   0  0  0  0  0  0  0  0  0  0  0  0
   -2.6085  -12.4177   27.8046 H   0  0  0  0  0  0  0  0  0  0  0  0
   -4.1050  -14.3468   28.3356 H   0  0  0  0  0  0  0  0  0  0  0  0
  1  2  1  0
  2  3  1  0
  3  4  1  0
  4  5  1  0
  5  6  1  0
  6  7  1  0
  7  8  2  0
  8  9  1  0
  9 10  1  0
 10 11  1  0
 11 12  1  0
 12 13  1  0
 13 14  1  0
  9 15  1  0
  2 16  1  0
 16 17  2  0
 17 18  1  0
 18 19  2  0
 19 20  1  0
 15  6  2  0
 20 16  1  0
 14 10  1  0
  1 21  1  0
  1 22  1  0
  1 23  1  0
  2 24  1  0
  3 25  1  0
  4 26  1  0
  4 27  1  0
  5 28  1  0
  5 29  1  0
  7 30  1  0
  8 31  1  0
 10 32  1  0
 11 33  1  0
 11 34  1  0
 12 35  1  0
 12 36  1  0
 13 37  1  0
 13 38  1  0
 14 39  1  0
 14 40  1  0
 18 41  1  0
 19 42  1  0
 20 43  1  0
M  END
>  <Energy>  (241) 
530.70486672761353

>  <compound_id>  (241) 
17995

>  <target_id>  (241) 
1

>  <reference_id>  (241) 
96

>  <inspiration_ids>  (241) 
[96, 116]

>  <energy_score>  (241) 
456.7695130989972

>  <distance_score>  (241) 
2.9191798522653416

>  <path>  (241) 
/opt/xchem-fragalysis-2/maxwin/BulkDock/SCRATCH/511020/C17995-P96/C17995-P96.minimised.mol

>  <scratch_subdir>  (241) 
/opt/xchem-fragalysis-2/maxwin/BulkDock/SCRATCH/511020/C17995-P96

>  <fragmenstein_runtime>  (241) 
16.796578407287598

>  <fragmenstein_outcome>  (241) 
too moved

>  <fragmenstein_mode>  (241) 
expansion

>  <fragmenstein_error>  (241) 


$$$$
C17995-P116
     RDKit          3D

 43 45  0  0  0  0  0  0  0  0999 V2000
   -6.5710  -17.7719   28.6673 C   0  0  0  0  0  0  0  0  0  0  0  0
   -5.3785  -18.6405   27.7688 C   0  0  0  0  0  0  0  0  0  0  0  0
   -5.8984  -20.0404   26.8274 N   0  0  0  0  0  0  0  0  0  0  0  0
   -6.2290  -21.8167   27.3819 C   0  0  0  0  0  0  0  0  0  0  0  0
   -7.8491  -22.4716   27.4796 C   0  0  0  0  0  0  0  0  0  0  0  0
   -9.0634  -23.7751   27.2354 C   0  0  0  0  0  0  0  0  0  0  0  0
   -9.5086  -24.5537   26.0908 C   0  0  0  0  0  0  0  0  0  0  0  0
  -10.4992  -25.4413   26.4796 C   0  0  0  0  0  0  0  0  0  0  0  0
  -10.9238  -24.7361   27.5363 N   0  0  0  0  0  0  0  0  0  0  0  0
  -12.0571  -23.9114   27.3116 C   0  0  0  0  0  0  0  0  0  0  0  0
  -12.3250  -23.8359   25.8414 C   0  0  0  0  0  0  0  0  0  0  0  0
  -12.9942  -22.5823   25.6914 C   0  0  0  0  0  0  0  0  0  0  0  0
  -12.2845  -21.7925   26.7877 C   0  0  0  0  0  0  0  0  0  0  0  0
  -11.8421  -22.5800   27.9207 C   0  0  0  0  0  0  0  0  0  0  0  0
   -9.9184  -24.1540   28.1864 N   0  0  0  0  0  0  0  0  0  0  0  0
   -3.5461  -17.9899   27.6803 C   0  0  0  0  0  0  0  0  0  0  0  0
   -2.5224  -18.5477   26.9828 N   0  0  0  0  0  0  0  0  0  0  0  0
   -1.6897  -17.5230   26.6711 C   0  0  0  0  0  0  0  0  0  0  0  0
   -1.9289  -16.4539   27.4576 C   0  0  0  0  0  0  0  0  0  0  0  0
   -3.1650  -16.7370   27.8673 N   0  0  0  0  0  0  0  0  0  0  0  0
   -7.2023  -16.9782   28.1654 H   0  0  0  0  0  0  0  0  0  0  0  0
   -7.6443  -18.1622   28.6006 H   0  0  0  0  0  0  0  0  0  0  0  0
   -6.0966  -17.1964   29.4932 H   0  0  0  0  0  0  0  0  0  0  0  0
   -5.6442  -17.9843   27.1132 H   0  0  0  0  0  0  0  0  0  0  0  0
   -6.8834  -19.8591   27.0129 H   0  0  0  0  0  0  0  0  0  0  0  0
   -5.7454  -22.3067   26.5449 H   0  0  0  0  0  0  0  0  0  0  0  0
   -5.6389  -22.2043   28.2107 H   0  0  0  0  0  0  0  0  0  0  0  0
   -7.5935  -22.9693   28.4009 H   0  0  0  0  0  0  0  0  0  0  0  0
   -7.5722  -22.8613   26.4993 H   0  0  0  0  0  0  0  0  0  0  0  0
   -9.0696  -24.5651   25.1191 H   0  0  0  0  0  0  0  0  0  0  0  0
  -11.0758  -26.1955   25.9678 H   0  0  0  0  0  0  0  0  0  0  0  0
  -12.9931  -24.3132   27.6137 H   0  0  0  0  0  0  0  0  0  0  0  0
  -11.4275  -23.7021   25.2556 H   0  0  0  0  0  0  0  0  0  0  0  0
  -12.9427  -24.6859   25.5232 H   0  0  0  0  0  0  0  0  0  0  0  0
  -12.8703  -22.1451   24.6925 H   0  0  0  0  0  0  0  0  0  0  0  0
  -14.0415  -22.8604   25.8182 H   0  0  0  0  0  0  0  0  0  0  0  0
  -11.4817  -21.2774   26.3395 H   0  0  0  0  0  0  0  0  0  0  0  0
  -12.7408  -21.0587   27.3800 H   0  0  0  0  0  0  0  0  0  0  0  0
  -12.3802  -22.4079   28.8513 H   0  0  0  0  0  0  0  0  0  0  0  0
  -10.8534  -22.2180   28.1935 H   0  0  0  0  0  0  0  0  0  0  0  0
   -0.8977  -17.6921   25.9824 H   0  0  0  0  0  0  0  0  0  0  0  0
   -1.4886  -15.5142   27.7376 H   0  0  0  0  0  0  0  0  0  0  0  0
   -3.7407  -16.0913   28.3487 H   0  0  0  0  0  0  0  0  0  0  0  0
  1  2  1  0
  2  3  1  0
  3  4  1  0
  4  5  1  0
  5  6  1  0
  6  7  1  0
  7  8  2  0
  8  9  1  0
  9 10  1  0
 10 11  1  0
 11 12  1  0
 12 13  1  0
 13 14  1  0
  9 15  1  0
  2 16  1  0
 16 17  2  0
 17 18  1  0
 18 19  2  0
 19 20  1  0
 15  6  2  0
 20 16  1  0
 14 10  1  0
  1 21  1  0
  1 22  1  0
  1 23  1  0
  2 24  1  0
  3 25  1  0
  4 26  1  0
  4 27  1  0
  5 28  1  0
  5 29  1  0
  7 30  1  0
  8 31  1  0
 10 32  1  0
 11 33  1  0
 11 34  1  0
 12 35  1  0
 12 36  1  0
 13 37  1  0
 13 38  1  0
 14 39  1  0
 14 40  1  0
 18 41  1  0
 19 42  1  0
 20 43  1  0
M  END
>  <Energy>  (242) 
468.41290382971886

>  <compound_id>  (242) 
17995

>  <target_id>  (242) 
1

>  <reference_id>  (242) 
116

>  <inspiration_ids>  (242) 
[96, 116]

>  <energy_score>  (242) 
394.47755020111015

>  <distance_score>  (242) 
4.578105228588589

>  <path>  (242) 
/opt/xchem-fragalysis-2/maxwin/BulkDock/SCRATCH/511020/C17995-P116/C17995-P116.minimised.mol

>  <scratch_subdir>  (242) 
/opt/xchem-fragalysis-2/maxwin/BulkDock/SCRATCH/511020/C17995-P116

>  <fragmenstein_runtime>  (242) 
12.69131588935852

>  <fragmenstein_outcome>  (242) 
too moved

>  <fragmenstein_mode>  (242) 
expansion

>  <fragmenstein_error>  (242) 


$$$$
C17996-P96
     RDKit          3D

 40 42  0  0  0  0  0  0  0  0999 V2000
   -6.1994  -21.7535   27.2793 O   0  0  0  0  0  0  0  0  0  0  0  0
   -7.0147  -20.9780   27.5989 C   0  0  0  0  0  0  0  0  0  0  0  0
   -6.8478  -19.2931   27.2635 N   0  0  0  0  0  0  0  0  0  0  0  0
   -5.6058  -18.3865   26.3342 C   0  0  0  0  0  0  0  0  0  0  0  0
   -4.7244  -18.7622   24.8952 C   0  0  0  0  0  0  0  0  0  0  0  0
   -4.5195  -19.9968   24.4473 O   0  0  0  0  0  0  0  0  0  0  0  0
   -5.0197  -16.6441   26.9336 C   0  0  0  0  0  0  0  0  0  0  0  0
   -5.6270  -15.7762   28.1472 N   0  0  0  0  0  0  0  0  0  0  0  0
   -4.9360  -14.6315   28.3833 C   0  0  0  0  0  0  0  0  0  0  0  0
   -3.8108  -14.4593   27.4185 C   0  0  0  0  0  0  0  0  0  0  0  0
   -3.7089  -15.5451   26.4677 N   0  0  0  0  0  0  0  0  0  0  0  0
   -8.4555  -21.8554   28.3195 C   0  0  0  0  0  0  0  0  0  0  0  0
   -8.5222  -22.9956   29.2666 C   0  0  0  0  0  0  0  0  0  0  0  0
   -9.8227  -22.9874   29.8466 C   0  0  0  0  0  0  0  0  0  0  0  0
  -10.6035  -22.2093   29.1045 N   0  0  0  0  0  0  0  0  0  0  0  0
   -9.8771  -22.2200   27.9309 N   0  0  0  0  0  0  0  0  0  0  0  0
  -10.3112  -23.3373   27.0053 C   0  0  0  0  0  0  0  0  0  0  0  0
  -10.2271  -24.8199   27.5083 C   0  0  0  0  0  0  0  0  0  0  0  0
  -11.6246  -25.2072   27.9603 C   0  0  0  0  0  0  0  0  0  0  0  0
  -12.4627  -24.5859   26.8685 C   0  0  0  0  0  0  0  0  0  0  0  0
  -11.8033  -23.2262   26.6481 C   0  0  0  0  0  0  0  0  0  0  0  0
   -7.5802  -18.8169   27.6794 H   0  0  0  0  0  0  0  0  0  0  0  0
   -5.1401  -19.2665   26.7722 H   0  0  0  0  0  0  0  0  0  0  0  0
   -3.7380  -18.4028   24.6927 H   0  0  0  0  0  0  0  0  0  0  0  0
   -5.2438  -18.1930   24.1227 H   0  0  0  0  0  0  0  0  0  0  0  0
   -3.7057  -19.8868   23.9167 H   0  0  0  0  0  0  0  0  0  0  0  0
   -5.4336  -13.9826   29.0686 H   0  0  0  0  0  0  0  0  0  0  0  0
   -3.1656  -13.6049   27.2045 H   0  0  0  0  0  0  0  0  0  0  0  0
   -3.0079  -15.8624   25.8087 H   0  0  0  0  0  0  0  0  0  0  0  0
   -7.7144  -23.5602   29.7047 H   0  0  0  0  0  0  0  0  0  0  0  0
  -10.1949  -23.4721   30.7390 H   0  0  0  0  0  0  0  0  0  0  0  0
   -9.7191  -23.2529   26.1036 H   0  0  0  0  0  0  0  0  0  0  0  0
   -9.4690  -25.0483   28.2560 H   0  0  0  0  0  0  0  0  0  0  0  0
  -10.0038  -25.4630   26.6474 H   0  0  0  0  0  0  0  0  0  0  0  0
  -11.7578  -26.2910   28.0182 H   0  0  0  0  0  0  0  0  0  0  0  0
  -11.8705  -24.7793   28.9369 H   0  0  0  0  0  0  0  0  0  0  0  0
  -12.4084  -25.1986   25.9647 H   0  0  0  0  0  0  0  0  0  0  0  0
  -13.5160  -24.5031   27.1479 H   0  0  0  0  0  0  0  0  0  0  0  0
  -12.2668  -22.5440   27.3504 H   0  0  0  0  0  0  0  0  0  0  0  0
  -11.9604  -22.8596   25.6299 H   0  0  0  0  0  0  0  0  0  0  0  0
  1  2  2  0
  2  3  1  0
  3  4  1  0
  4  5  1  0
  5  6  1  0
  4  7  1  0
  7  8  2  0
  8  9  1  0
  9 10  2  0
 10 11  1  0
  2 12  1  0
 12 13  2  0
 13 14  1  0
 14 15  2  0
 15 16  1  0
 16 17  1  0
 17 18  1  0
 18 19  1  0
 19 20  1  0
 20 21  1  0
 11  7  1  0
 16 12  1  0
 21 17  1  0
  3 22  1  0
  4 23  1  0
  5 24  1  0
  5 25  1  0
  6 26  1  0
  9 27  1  0
 10 28  1  0
 11 29  1  0
 13 30  1  0
 14 31  1  0
 17 32  1  0
 18 33  1  0
 18 34  1  0
 19 35  1  0
 19 36  1  0
 20 37  1  0
 20 38  1  0
 21 39  1  0
 21 40  1  0
M  END
>  <Energy>  (243) 
409.58964608854313

>  <compound_id>  (243) 
17996

>  <target_id>  (243) 
1

>  <reference_id>  (243) 
96

>  <inspiration_ids>  (243) 
[96, 116]

>  <energy_score>  (243) 
359.9225444498006

>  <distance_score>  (243) 
3.7475759595095606

>  <path>  (243) 
/opt/xchem-fragalysis-2/maxwin/BulkDock/SCRATCH/511020/C17996-P96/C17996-P96.minimised.mol

>  <scratch_subdir>  (243) 
/opt/xchem-fragalysis-2/maxwin/BulkDock/SCRATCH/511020/C17996-P96

>  <fragmenstein_runtime>  (243) 
12.36359167098999

>  <fragmenstein_outcome>  (243) 
too moved

>  <fragmenstein_mode>  (243) 
expansion

>  <fragmenstein_error>  (243) 


$$$$
C17996-P116
     RDKit          3D

 40 42  0  0  0  0  0  0  0  0999 V2000
   -5.5694  -22.3086   28.0850 O   0  0  0  0  0  0  0  0  0  0  0  0
   -6.2267  -21.5965   27.3691 C   0  0  0  0  0  0  0  0  0  0  0  0
   -5.6678  -19.7702   26.9808 N   0  0  0  0  0  0  0  0  0  0  0  0
   -4.0587  -18.6314   27.7325 C   0  0  0  0  0  0  0  0  0  0  0  0
   -2.5506  -19.0630   26.7983 C   0  0  0  0  0  0  0  0  0  0  0  0
   -1.6133  -18.2755   26.0720 O   0  0  0  0  0  0  0  0  0  0  0  0
   -3.0680  -16.9851   27.6441 C   0  0  0  0  0  0  0  0  0  0  0  0
   -3.0466  -15.8473   28.3978 N   0  0  0  0  0  0  0  0  0  0  0  0
   -1.9422  -15.0819   28.3204 C   0  0  0  0  0  0  0  0  0  0  0  0
   -2.0888  -15.0007   27.0127 C   0  0  0  0  0  0  0  0  0  0  0  0
   -2.2194  -16.3920   26.7079 N   0  0  0  0  0  0  0  0  0  0  0  0
   -7.8235  -22.4819   26.9041 C   0  0  0  0  0  0  0  0  0  0  0  0
   -8.1199  -23.1396   28.1182 C   0  0  0  0  0  0  0  0  0  0  0  0
   -9.2756  -24.0580   28.2334 C   0  0  0  0  0  0  0  0  0  0  0  0
  -10.1035  -23.3081   27.6809 N   0  0  0  0  0  0  0  0  0  0  0  0
   -9.1772  -23.7176   26.7331 N   0  0  0  0  0  0  0  0  0  0  0  0
  -10.3553  -24.2898   25.7847 C   0  0  0  0  0  0  0  0  0  0  0  0
  -10.9762  -25.6786   26.2410 C   0  0  0  0  0  0  0  0  0  0  0  0
  -12.4878  -25.6593   26.1138 C   0  0  0  0  0  0  0  0  0  0  0  0
  -12.8563  -24.2270   26.2674 C   0  0  0  0  0  0  0  0  0  0  0  0
  -11.7191  -23.3996   25.7716 C   0  0  0  0  0  0  0  0  0  0  0  0
   -6.2887  -19.3729   26.3096 H   0  0  0  0  0  0  0  0  0  0  0  0
   -4.7390  -17.7884   27.7085 H   0  0  0  0  0  0  0  0  0  0  0  0
   -2.9369  -19.4113   25.9091 H   0  0  0  0  0  0  0  0  0  0  0  0
   -2.0193  -19.8002   27.3645 H   0  0  0  0  0  0  0  0  0  0  0  0
   -1.1007  -18.9005   25.5353 H   0  0  0  0  0  0  0  0  0  0  0  0
   -1.6273  -14.3409   29.0340 H   0  0  0  0  0  0  0  0  0  0  0  0
   -2.0469  -14.1669   26.3207 H   0  0  0  0  0  0  0  0  0  0  0  0
   -2.1182  -16.8497   25.8189 H   0  0  0  0  0  0  0  0  0  0  0  0
   -7.3379  -23.1711   28.8264 H   0  0  0  0  0  0  0  0  0  0  0  0
   -9.5808  -24.8895   28.7859 H   0  0  0  0  0  0  0  0  0  0  0  0
   -9.8767  -24.3534   24.8393 H   0  0  0  0  0  0  0  0  0  0  0  0
  -10.7535  -25.9247   27.2766 H   0  0  0  0  0  0  0  0  0  0  0  0
  -10.6506  -26.5147   25.6351 H   0  0  0  0  0  0  0  0  0  0  0  0
  -12.9749  -26.3349   26.8181 H   0  0  0  0  0  0  0  0  0  0  0  0
  -12.8670  -26.0127   25.1702 H   0  0  0  0  0  0  0  0  0  0  0  0
  -12.9518  -23.9843   27.3146 H   0  0  0  0  0  0  0  0  0  0  0  0
  -13.7693  -23.9739   25.7244 H   0  0  0  0  0  0  0  0  0  0  0  0
  -11.7341  -22.5035   26.4081 H   0  0  0  0  0  0  0  0  0  0  0  0
  -11.9559  -23.0126   24.7737 H   0  0  0  0  0  0  0  0  0  0  0  0
  1  2  2  0
  2  3  1  0
  3  4  1  0
  4  5  1  0
  5  6  1  0
  4  7  1  0
  7  8  2  0
  8  9  1  0
  9 10  2  0
 10 11  1  0
  2 12  1  0
 12 13  2  0
 13 14  1  0
 14 15  2  0
 15 16  1  0
 16 17  1  0
 17 18  1  0
 18 19  1  0
 19 20  1  0
 20 21  1  0
 11  7  1  0
 16 12  1  0
 21 17  1  0
  3 22  1  0
  4 23  1  0
  5 24  1  0
  5 25  1  0
  6 26  1  0
  9 27  1  0
 10 28  1  0
 11 29  1  0
 13 30  1  0
 14 31  1  0
 17 32  1  0
 18 33  1  0
 18 34  1  0
 19 35  1  0
 19 36  1  0
 20 37  1  0
 20 38  1  0
 21 39  1  0
 21 40  1  0
M  END
>  <Energy>  (244) 
853.08323311986362

>  <compound_id>  (244) 
17996

>  <target_id>  (244) 
1

>  <reference_id>  (244) 
116

>  <inspiration_ids>  (244) 
[96, 116]

>  <energy_score>  (244) 
803.4161314811247

>  <distance_score>  (244) 
3.2685662109044085

>  <path>  (244) 
/opt/xchem-fragalysis-2/maxwin/BulkDock/SCRATCH/511020/C17996-P116/C17996-P116.minimised.mol

>  <scratch_subdir>  (244) 
/opt/xchem-fragalysis-2/maxwin/BulkDock/SCRATCH/511020/C17996-P116

>  <fragmenstein_runtime>  (244) 
16.72735905647278

>  <fragmenstein_outcome>  (244) 
too moved

>  <fragmenstein_mode>  (244) 
expansion

>  <fragmenstein_error>  (244) 


$$$$
C17997-P96
     RDKit          3D

 42 44  0  0  0  0  0  0  0  0999 V2000
   -5.9129  -21.7498   27.5023 O   0  0  0  0  0  0  0  0  0  0  0  0
   -6.7570  -20.9313   27.6571 C   0  0  0  0  0  0  0  0  0  0  0  0
   -8.2948  -21.6444   28.2614 C   0  0  0  0  0  0  0  0  0  0  0  0
   -9.0015  -22.7882   29.0178 C   0  0  0  0  0  0  0  0  0  0  0  0
   -8.7240  -24.0709   29.5181 C   0  0  0  0  0  0  0  0  0  0  0  0
   -9.8717  -24.4689   30.1761 C   0  0  0  0  0  0  0  0  0  0  0  0
  -10.7513  -23.4383   30.0468 N   0  0  0  0  0  0  0  0  0  0  0  0
  -12.0424  -23.1916   30.6714 C   0  0  0  0  0  0  0  0  0  0  0  0
  -12.1932  -23.8239   32.0432 C   0  0  0  0  0  0  0  0  0  0  0  0
  -11.4224  -22.8920   32.9824 C   0  0  0  0  0  0  0  0  0  0  0  0
  -11.4793  -21.5117   32.3347 C   0  0  0  0  0  0  0  0  0  0  0  0
  -12.2620  -21.7123   31.0411 C   0  0  0  0  0  0  0  0  0  0  0  0
  -10.3104  -22.5236   29.1939 N   0  0  0  0  0  0  0  0  0  0  0  0
   -6.7209  -19.4209   27.3019 N   0  0  0  0  0  0  0  0  0  0  0  0
   -5.5474  -18.5017   26.4852 C   0  0  0  0  0  0  0  0  0  0  0  0
   -4.8815  -16.7844   26.9638 C   0  0  0  0  0  0  0  0  0  0  0  0
   -3.6103  -15.4029   26.5296 C   0  0  0  0  0  0  0  0  0  0  0  0
   -3.6714  -14.3423   27.3717 N   0  0  0  0  0  0  0  0  0  0  0  0
   -2.6977  -13.2873   27.0616 C   0  0  0  0  0  0  0  0  0  0  0  0
   -2.3568  -13.7148   25.8901 C   0  0  0  0  0  0  0  0  0  0  0  0
   -2.5078  -15.2275   25.8348 N   0  0  0  0  0  0  0  0  0  0  0  0
   -8.4679  -22.2829   27.3802 H   0  0  0  0  0  0  0  0  0  0  0  0
   -9.0485  -20.8451   28.3486 H   0  0  0  0  0  0  0  0  0  0  0  0
   -7.8206  -24.6448   29.4340 H   0  0  0  0  0  0  0  0  0  0  0  0
  -10.0929  -25.3645   30.7372 H   0  0  0  0  0  0  0  0  0  0  0  0
  -12.7993  -23.5506   29.9662 H   0  0  0  0  0  0  0  0  0  0  0  0
  -11.8387  -24.8522   32.0611 H   0  0  0  0  0  0  0  0  0  0  0  0
  -13.2524  -23.8354   32.3294 H   0  0  0  0  0  0  0  0  0  0  0  0
  -10.3804  -23.2175   33.0807 H   0  0  0  0  0  0  0  0  0  0  0  0
  -11.8539  -22.8712   33.9858 H   0  0  0  0  0  0  0  0  0  0  0  0
  -10.4658  -21.1521   32.1256 H   0  0  0  0  0  0  0  0  0  0  0  0
  -11.9633  -20.7740   32.9827 H   0  0  0  0  0  0  0  0  0  0  0  0
  -11.9601  -20.9946   30.2732 H   0  0  0  0  0  0  0  0  0  0  0  0
  -13.3263  -21.5455   31.2480 H   0  0  0  0  0  0  0  0  0  0  0  0
   -7.5198  -19.0030   27.6170 H   0  0  0  0  0  0  0  0  0  0  0  0
   -5.8952  -18.2041   25.5618 H   0  0  0  0  0  0  0  0  0  0  0  0
   -4.9083  -19.3102   26.0365 H   0  0  0  0  0  0  0  0  0  0  0  0
   -5.5296  -16.5001   26.3185 H   0  0  0  0  0  0  0  0  0  0  0  0
   -5.4163  -16.1139   27.8398 H   0  0  0  0  0  0  0  0  0  0  0  0
   -2.5779  -12.4641   27.7339 H   0  0  0  0  0  0  0  0  0  0  0  0
   -2.4198  -13.1132   24.9768 H   0  0  0  0  0  0  0  0  0  0  0  0
   -2.2959  -15.8797   25.1017 H   0  0  0  0  0  0  0  0  0  0  0  0
  1  2  2  0
  2  3  1  0
  3  4  1  0
  4  5  1  0
  5  6  2  0
  6  7  1  0
  7  8  1  0
  8  9  1  0
  9 10  1  0
 10 11  1  0
 11 12  1  0
  7 13  1  0
  2 14  1  0
 14 15  1  0
 15 16  1  0
 16 17  1  0
 17 18  2  0
 18 19  1  0
 19 20  2  0
 20 21  1  0
 13  4  2  0
 21 17  1  0
 12  8  1  0
  3 22  1  0
  3 23  1  0
  5 24  1  0
  6 25  1  0
  8 26  1  0
  9 27  1  0
  9 28  1  0
 10 29  1  0
 10 30  1  0
 11 31  1  0
 11 32  1  0
 12 33  1  0
 12 34  1  0
 14 35  1  0
 15 36  1  0
 15 37  1  0
 16 38  1  0
 16 39  1  0
 19 40  1  0
 20 41  1  0
 21 42  1  0
M  END
>  <Energy>  (245) 
349.43843443391773

>  <compound_id>  (245) 
17997

>  <target_id>  (245) 
1

>  <reference_id>  (245) 
96

>  <inspiration_ids>  (245) 
[96, 116]

>  <energy_score>  (245) 
286.296245328001

>  <distance_score>  (245) 
2.6927570271395838

>  <path>  (245) 
/opt/xchem-fragalysis-2/maxwin/BulkDock/SCRATCH/511020/C17997-P96/C17997-P96.minimised.mol

>  <scratch_subdir>  (245) 
/opt/xchem-fragalysis-2/maxwin/BulkDock/SCRATCH/511020/C17997-P96

>  <fragmenstein_runtime>  (245) 
13.660755395889282

>  <fragmenstein_outcome>  (245) 
too moved

>  <fragmenstein_mode>  (245) 
expansion

>  <fragmenstein_error>  (245) 


$$$$
C17997-P116
     RDKit          3D

 42 44  0  0  0  0  0  0  0  0999 V2000
   -6.0243  -19.8149   26.3990 O   0  0  0  0  0  0  0  0  0  0  0  0
   -7.0878  -20.0058   26.9912 C   0  0  0  0  0  0  0  0  0  0  0  0
   -7.6514  -21.9279   27.2222 C   0  0  0  0  0  0  0  0  0  0  0  0
   -8.8406  -23.2658   27.4668 C   0  0  0  0  0  0  0  0  0  0  0  0
   -9.3013  -24.2786   26.4948 C   0  0  0  0  0  0  0  0  0  0  0  0
  -10.4824  -24.8526   26.8568 C   0  0  0  0  0  0  0  0  0  0  0  0
  -10.8438  -23.9801   27.7839 N   0  0  0  0  0  0  0  0  0  0  0  0
  -12.1732  -23.4949   27.8902 C   0  0  0  0  0  0  0  0  0  0  0  0
  -12.1917  -22.5415   29.1210 C   0  0  0  0  0  0  0  0  0  0  0  0
  -12.2879  -21.2469   28.5419 C   0  0  0  0  0  0  0  0  0  0  0  0
  -12.0743  -21.5237   27.0488 C   0  0  0  0  0  0  0  0  0  0  0  0
  -12.5187  -22.8336   26.6174 C   0  0  0  0  0  0  0  0  0  0  0  0
   -9.9426  -23.0868   28.1557 N   0  0  0  0  0  0  0  0  0  0  0  0
   -8.0506  -18.5483   27.8267 N   0  0  0  0  0  0  0  0  0  0  0  0
   -7.6384  -16.9706   28.0310 C   0  0  0  0  0  0  0  0  0  0  0  0
   -6.0057  -16.5457   29.2347 C   0  0  0  0  0  0  0  0  0  0  0  0
   -4.2001  -16.5738   28.4122 C   0  0  0  0  0  0  0  0  0  0  0  0
   -3.5513  -17.4928   27.7017 N   0  0  0  0  0  0  0  0  0  0  0  0
   -2.2796  -17.1188   27.2121 C   0  0  0  0  0  0  0  0  0  0  0  0
   -1.8443  -15.9928   27.8350 C   0  0  0  0  0  0  0  0  0  0  0  0
   -2.9199  -15.5049   28.4843 N   0  0  0  0  0  0  0  0  0  0  0  0
   -7.1149  -22.5404   26.4729 H   0  0  0  0  0  0  0  0  0  0  0  0
   -6.9821  -22.2273   28.0221 H   0  0  0  0  0  0  0  0  0  0  0  0
   -8.8576  -24.5163   25.5509 H   0  0  0  0  0  0  0  0  0  0  0  0
  -11.1306  -25.5810   26.3977 H   0  0  0  0  0  0  0  0  0  0  0  0
  -12.8930  -24.2642   27.7437 H   0  0  0  0  0  0  0  0  0  0  0  0
  -11.2854  -22.5478   29.7215 H   0  0  0  0  0  0  0  0  0  0  0  0
  -12.9036  -22.5838   29.9408 H   0  0  0  0  0  0  0  0  0  0  0  0
  -11.4754  -20.7994   29.1118 H   0  0  0  0  0  0  0  0  0  0  0  0
  -13.1313  -20.7023   28.8994 H   0  0  0  0  0  0  0  0  0  0  0  0
  -12.3487  -20.9028   26.2245 H   0  0  0  0  0  0  0  0  0  0  0  0
  -11.0223  -21.4687   26.9922 H   0  0  0  0  0  0  0  0  0  0  0  0
  -12.0083  -23.1930   25.7221 H   0  0  0  0  0  0  0  0  0  0  0  0
  -13.5666  -22.9152   26.3581 H   0  0  0  0  0  0  0  0  0  0  0  0
   -8.8269  -18.9144   28.3154 H   0  0  0  0  0  0  0  0  0  0  0  0
   -8.5163  -16.6527   28.4543 H   0  0  0  0  0  0  0  0  0  0  0  0
   -8.0405  -16.4027   27.1774 H   0  0  0  0  0  0  0  0  0  0  0  0
   -6.0206  -17.3107   29.9483 H   0  0  0  0  0  0  0  0  0  0  0  0
   -6.0905  -15.5607   29.6956 H   0  0  0  0  0  0  0  0  0  0  0  0
   -1.7562  -17.7850   26.5473 H   0  0  0  0  0  0  0  0  0  0  0  0
   -0.8890  -15.5466   28.0422 H   0  0  0  0  0  0  0  0  0  0  0  0
   -2.8818  -14.8328   29.2265 H   0  0  0  0  0  0  0  0  0  0  0  0
  1  2  2  0
  2  3  1  0
  3  4  1  0
  4  5  1  0
  5  6  2  0
  6  7  1  0
  7  8  1  0
  8  9  1  0
  9 10  1  0
 10 11  1  0
 11 12  1  0
  7 13  1  0
  2 14  1  0
 14 15  1  0
 15 16  1  0
 16 17  1  0
 17 18  2  0
 18 19  1  0
 19 20  2  0
 20 21  1  0
 13  4  2  0
 21 17  1  0
 12  8  1  0
  3 22  1  0
  3 23  1  0
  5 24  1  0
  6 25  1  0
  8 26  1  0
  9 27  1  0
  9 28  1  0
 10 29  1  0
 10 30  1  0
 11 31  1  0
 11 32  1  0
 12 33  1  0
 12 34  1  0
 14 35  1  0
 15 36  1  0
 15 37  1  0
 16 38  1  0
 16 39  1  0
 19 40  1  0
 20 41  1  0
 21 42  1  0
M  END
>  <Energy>  (246) 
540.58652285133121

>  <compound_id>  (246) 
17997

>  <target_id>  (246) 
1

>  <reference_id>  (246) 
116

>  <inspiration_ids>  (246) 
[96, 116]

>  <energy_score>  (246) 
477.4443337454222

>  <distance_score>  (246) 
4.233316197708482

>  <path>  (246) 
/opt/xchem-fragalysis-2/maxwin/BulkDock/SCRATCH/511020/C17997-P116/C17997-P116.minimised.mol

>  <scratch_subdir>  (246) 
/opt/xchem-fragalysis-2/maxwin/BulkDock/SCRATCH/511020/C17997-P116

>  <fragmenstein_runtime>  (246) 
15.30829930305481

>  <fragmenstein_outcome>  (246) 
too moved

>  <fragmenstein_mode>  (246) 
expansion

>  <fragmenstein_error>  (246) 


$$$$
C17998-P96
     RDKit          3D

 42 44  0  0  0  0  0  0  0  0999 V2000
   -7.0826  -15.7281   27.3120 C   0  0  0  0  0  0  0  0  0  0  0  0
   -5.2447  -16.5741   26.9039 C   0  0  0  0  0  0  0  0  0  0  0  0
   -5.6229  -18.4079   26.4363 C   0  0  0  0  0  0  0  0  0  0  0  0
   -6.8364  -19.2678   27.2957 N   0  0  0  0  0  0  0  0  0  0  0  0
   -6.9939  -20.8602   27.6266 C   0  0  0  0  0  0  0  0  0  0  0  0
   -6.2072  -21.7029   27.3760 O   0  0  0  0  0  0  0  0  0  0  0  0
   -8.5168  -21.6110   28.3197 C   0  0  0  0  0  0  0  0  0  0  0  0
   -8.8486  -22.9973   28.7169 C   0  0  0  0  0  0  0  0  0  0  0  0
  -10.1686  -23.0668   29.0715 C   0  0  0  0  0  0  0  0  0  0  0  0
  -10.5440  -21.7751   29.1948 N   0  0  0  0  0  0  0  0  0  0  0  0
  -11.4882  -21.2857   30.1896 C   0  0  0  0  0  0  0  0  0  0  0  0
  -12.4948  -22.3197   30.7149 C   0  0  0  0  0  0  0  0  0  0  0  0
  -13.1093  -21.6415   31.9292 C   0  0  0  0  0  0  0  0  0  0  0  0
  -11.9400  -20.9208   32.5851 C   0  0  0  0  0  0  0  0  0  0  0  0
  -10.8490  -20.8316   31.5156 C   0  0  0  0  0  0  0  0  0  0  0  0
   -9.6990  -20.9145   28.5568 N   0  0  0  0  0  0  0  0  0  0  0  0
   -3.7255  -15.3660   26.5247 C   0  0  0  0  0  0  0  0  0  0  0  0
   -2.6550  -15.1872   25.8002 N   0  0  0  0  0  0  0  0  0  0  0  0
   -2.3740  -13.7274   25.9873 C   0  0  0  0  0  0  0  0  0  0  0  0
   -2.7003  -13.2290   27.1546 C   0  0  0  0  0  0  0  0  0  0  0  0
   -3.6809  -14.3003   27.4729 N   0  0  0  0  0  0  0  0  0  0  0  0
   -6.8307  -14.7130   27.6891 H   0  0  0  0  0  0  0  0  0  0  0  0
   -7.8889  -15.4497   26.5875 H   0  0  0  0  0  0  0  0  0  0  0  0
   -7.7753  -16.4329   27.8271 H   0  0  0  0  0  0  0  0  0  0  0  0
   -5.3519  -16.1145   28.0062 H   0  0  0  0  0  0  0  0  0  0  0  0
   -4.9679  -19.2455   26.1242 H   0  0  0  0  0  0  0  0  0  0  0  0
   -5.8452  -18.1638   25.4585 H   0  0  0  0  0  0  0  0  0  0  0  0
   -7.5858  -18.7863   27.6801 H   0  0  0  0  0  0  0  0  0  0  0  0
   -8.2568  -23.8924   28.8224 H   0  0  0  0  0  0  0  0  0  0  0  0
  -10.7567  -23.9034   29.4174 H   0  0  0  0  0  0  0  0  0  0  0  0
  -11.9982  -20.4374   29.7273 H   0  0  0  0  0  0  0  0  0  0  0  0
  -11.9987  -23.2363   31.0572 H   0  0  0  0  0  0  0  0  0  0  0  0
  -13.2229  -22.6146   29.9626 H   0  0  0  0  0  0  0  0  0  0  0  0
  -13.5862  -22.3565   32.6063 H   0  0  0  0  0  0  0  0  0  0  0  0
  -13.8680  -20.9134   31.6253 H   0  0  0  0  0  0  0  0  0  0  0  0
  -11.5718  -21.4843   33.4503 H   0  0  0  0  0  0  0  0  0  0  0  0
  -12.2378  -19.9335   32.9496 H   0  0  0  0  0  0  0  0  0  0  0  0
  -10.0392  -21.5086   31.8117 H   0  0  0  0  0  0  0  0  0  0  0  0
  -10.4308  -19.8240   31.4466 H   0  0  0  0  0  0  0  0  0  0  0  0
   -2.3492  -13.0649   25.1241 H   0  0  0  0  0  0  0  0  0  0  0  0
   -2.6050  -12.4040   27.8181 H   0  0  0  0  0  0  0  0  0  0  0  0
   -4.1292  -14.3281   28.3771 H   0  0  0  0  0  0  0  0  0  0  0  0
  1  2  1  0
  2  3  1  0
  3  4  1  0
  4  5  1  0
  5  6  2  0
  5  7  1  0
  7  8  1  0
  8  9  2  0
  9 10  1  0
 10 11  1  0
 11 12  1  0
 12 13  1  0
 13 14  1  0
 14 15  1  0
 10 16  1  0
  2 17  1  0
 17 18  2  0
 18 19  1  0
 19 20  2  0
 20 21  1  0
 16  7  2  0
 21 17  1  0
 15 11  1  0
  1 22  1  0
  1 23  1  0
  1 24  1  0
  2 25  1  0
  3 26  1  0
  3 27  1  0
  4 28  1  0
  8 29  1  0
  9 30  1  0
 11 31  1  0
 12 32  1  0
 12 33  1  0
 13 34  1  0
 13 35  1  0
 14 36  1  0
 14 37  1  0
 15 38  1  0
 15 39  1  0
 19 40  1  0
 20 41  1  0
 21 42  1  0
M  END
>  <Energy>  (247) 
421.53824289678101

>  <compound_id>  (247) 
17998

>  <target_id>  (247) 
1

>  <reference_id>  (247) 
96

>  <inspiration_ids>  (247) 
[96, 116]

>  <energy_score>  (247) 
351.35430362283273

>  <distance_score>  (247) 
3.0069349497835716

>  <path>  (247) 
/opt/xchem-fragalysis-2/maxwin/BulkDock/SCRATCH/511020/C17998-P96/C17998-P96.minimised.mol

>  <scratch_subdir>  (247) 
/opt/xchem-fragalysis-2/maxwin/BulkDock/SCRATCH/511020/C17998-P96

>  <fragmenstein_runtime>  (247) 
15.077479124069214

>  <fragmenstein_outcome>  (247) 
too moved

>  <fragmenstein_mode>  (247) 
expansion

>  <fragmenstein_error>  (247) 


$$$$
C17998-P116
     RDKit          3D

 42 44  0  0  0  0  0  0  0  0999 V2000
   -6.3748  -17.7112   28.8299 C   0  0  0  0  0  0  0  0  0  0  0  0
   -5.3820  -18.3319   27.6799 C   0  0  0  0  0  0  0  0  0  0  0  0
   -6.0797  -19.9188   26.8028 C   0  0  0  0  0  0  0  0  0  0  0  0
   -7.2521  -21.2963   27.4130 N   0  0  0  0  0  0  0  0  0  0  0  0
   -7.5832  -22.5692   26.8431 C   0  0  0  0  0  0  0  0  0  0  0  0
   -7.1437  -23.1152   25.8936 O   0  0  0  0  0  0  0  0  0  0  0  0
   -8.8337  -23.4283   27.4473 C   0  0  0  0  0  0  0  0  0  0  0  0
   -9.5912  -24.3730   26.5946 C   0  0  0  0  0  0  0  0  0  0  0  0
  -10.8246  -24.5624   27.1033 C   0  0  0  0  0  0  0  0  0  0  0  0
  -10.8675  -23.5823   28.0186 N   0  0  0  0  0  0  0  0  0  0  0  0
  -12.0519  -22.9471   28.4184 C   0  0  0  0  0  0  0  0  0  0  0  0
  -12.2624  -22.5204   29.8721 C   0  0  0  0  0  0  0  0  0  0  0  0
  -12.8885  -21.3014   30.1416 C   0  0  0  0  0  0  0  0  0  0  0  0
  -12.2969  -20.7574   28.9775 C   0  0  0  0  0  0  0  0  0  0  0  0
  -12.2689  -21.6789   27.7674 C   0  0  0  0  0  0  0  0  0  0  0  0
   -9.7937  -22.8677   28.1735 N   0  0  0  0  0  0  0  0  0  0  0  0
   -3.5572  -17.5737   27.6111 C   0  0  0  0  0  0  0  0  0  0  0  0
   -2.5653  -18.2643   26.9915 N   0  0  0  0  0  0  0  0  0  0  0  0
   -1.5944  -17.3979   26.7097 C   0  0  0  0  0  0  0  0  0  0  0  0
   -1.6422  -16.3736   27.5814 C   0  0  0  0  0  0  0  0  0  0  0  0
   -2.9216  -16.3910   27.9268 N   0  0  0  0  0  0  0  0  0  0  0  0
   -7.2986  -17.4148   28.2786 H   0  0  0  0  0  0  0  0  0  0  0  0
   -6.5676  -18.3484   29.6978 H   0  0  0  0  0  0  0  0  0  0  0  0
   -5.9319  -16.8196   29.3741 H   0  0  0  0  0  0  0  0  0  0  0  0
   -4.5661  -18.8925   27.9608 H   0  0  0  0  0  0  0  0  0  0  0  0
   -5.3479  -20.4991   26.0775 H   0  0  0  0  0  0  0  0  0  0  0  0
   -6.3770  -19.4911   25.8966 H   0  0  0  0  0  0  0  0  0  0  0  0
   -7.8569  -21.1121   28.1415 H   0  0  0  0  0  0  0  0  0  0  0  0
   -9.2940  -24.7241   25.6253 H   0  0  0  0  0  0  0  0  0  0  0  0
  -11.6779  -25.1192   26.7514 H   0  0  0  0  0  0  0  0  0  0  0  0
  -12.7556  -23.6471   27.9887 H   0  0  0  0  0  0  0  0  0  0  0  0
  -11.3991  -22.5549   30.5005 H   0  0  0  0  0  0  0  0  0  0  0  0
  -13.0700  -23.0883   30.2941 H   0  0  0  0  0  0  0  0  0  0  0  0
  -12.4686  -21.0034   31.0857 H   0  0  0  0  0  0  0  0  0  0  0  0
  -13.9482  -21.4094   30.2602 H   0  0  0  0  0  0  0  0  0  0  0  0
  -11.2471  -20.7001   29.3156 H   0  0  0  0  0  0  0  0  0  0  0  0
  -12.7263  -19.7810   28.9255 H   0  0  0  0  0  0  0  0  0  0  0  0
  -11.5632  -21.4668   26.9774 H   0  0  0  0  0  0  0  0  0  0  0  0
  -13.1754  -21.8933   27.2687 H   0  0  0  0  0  0  0  0  0  0  0  0
   -0.8362  -17.6875   26.0237 H   0  0  0  0  0  0  0  0  0  0  0  0
   -0.9942  -15.6129   27.9888 H   0  0  0  0  0  0  0  0  0  0  0  0
   -3.2657  -15.6276   28.4636 H   0  0  0  0  0  0  0  0  0  0  0  0
  1  2  1  0
  2  3  1  0
  3  4  1  0
  4  5  1  0
  5  6  2  0
  5  7  1  0
  7  8  1  0
  8  9  2  0
  9 10  1  0
 10 11  1  0
 11 12  1  0
 12 13  1  0
 13 14  1  0
 14 15  1  0
 10 16  1  0
  2 17  1  0
 17 18  2  0
 18 19  1  0
 19 20  2  0
 20 21  1  0
 16  7  2  0
 21 17  1  0
 15 11  1  0
  1 22  1  0
  1 23  1  0
  1 24  1  0
  2 25  1  0
  3 26  1  0
  3 27  1  0
  4 28  1  0
  8 29  1  0
  9 30  1  0
 11 31  1  0
 12 32  1  0
 12 33  1  0
 13 34  1  0
 13 35  1  0
 14 36  1  0
 14 37  1  0
 15 38  1  0
 15 39  1  0
 19 40  1  0
 20 41  1  0
 21 42  1  0
M  END
>  <Energy>  (248) 
393.86391296126664

>  <compound_id>  (248) 
17998

>  <target_id>  (248) 
1

>  <reference_id>  (248) 
116

>  <inspiration_ids>  (248) 
[96, 116]

>  <energy_score>  (248) 
323.6799736873304

>  <distance_score>  (248) 
4.007070851762904

>  <path>  (248) 
/opt/xchem-fragalysis-2/maxwin/BulkDock/SCRATCH/511020/C17998-P116/C17998-P116.minimised.mol

>  <scratch_subdir>  (248) 
/opt/xchem-fragalysis-2/maxwin/BulkDock/SCRATCH/511020/C17998-P116

>  <fragmenstein_runtime>  (248) 
23.337957859039307

>  <fragmenstein_outcome>  (248) 
too moved

>  <fragmenstein_mode>  (248) 
expansion

>  <fragmenstein_error>  (248) 


$$$$
C48747-P96
     RDKit          3D

 45 47  0  0  0  0  0  0  0  0999 V2000
   -3.1751  -20.8537   30.5697 C   0  0  0  0  0  0  0  0  0  0  0  0
   -3.5355  -20.0695   29.3576 N   0  0  0  0  0  0  0  0  0  0  0  0
   -1.6555  -19.3848   29.4841 C   0  0  0  0  0  0  0  0  0  0  0  0
   -0.6796  -18.6059   28.3582 C   0  0  0  0  0  0  0  0  0  0  0  0
    0.3056  -17.4913   29.0727 C   0  0  0  0  0  0  0  0  0  0  0  0
    1.5225  -17.5751   29.6677 C   0  0  0  0  0  0  0  0  0  0  0  0
    1.8288  -16.2717   29.7591 N   0  0  0  0  0  0  0  0  0  0  0  0
    0.8030  -15.5084   29.4225 C   0  0  0  0  0  0  0  0  0  0  0  0
   -0.1018  -16.3702   29.6928 N   0  0  0  0  0  0  0  0  0  0  0  0
   -4.3058  -21.2770   28.0118 C   0  0  0  0  0  0  0  0  0  0  0  0
   -3.7849  -21.8727   27.1458 O   0  0  0  0  0  0  0  0  0  0  0  0
   -6.2926  -21.4518   27.8887 C   0  0  0  0  0  0  0  0  0  0  0  0
   -8.0276  -22.1357   28.4924 C   0  0  0  0  0  0  0  0  0  0  0  0
   -8.2857  -23.4908   29.1630 C   0  0  0  0  0  0  0  0  0  0  0  0
   -9.6031  -23.7859   28.9640 C   0  0  0  0  0  0  0  0  0  0  0  0
  -10.1414  -22.5300   29.0196 N   0  0  0  0  0  0  0  0  0  0  0  0
  -10.9417  -22.2607   30.2075 C   0  0  0  0  0  0  0  0  0  0  0  0
  -11.4737  -20.8721   30.4973 C   0  0  0  0  0  0  0  0  0  0  0  0
  -12.4846  -21.1225   31.6336 C   0  0  0  0  0  0  0  0  0  0  0  0
  -12.8188  -22.6111   31.6180 C   0  0  0  0  0  0  0  0  0  0  0  0
  -12.1913  -23.1361   30.3405 C   0  0  0  0  0  0  0  0  0  0  0  0
   -9.2932  -21.5989   28.4470 N   0  0  0  0  0  0  0  0  0  0  0  0
   -4.0238  -21.3042   31.0794 H   0  0  0  0  0  0  0  0  0  0  0  0
   -2.9484  -21.7377   30.0113 H   0  0  0  0  0  0  0  0  0  0  0  0
   -2.9588  -20.7366   31.5981 H   0  0  0  0  0  0  0  0  0  0  0  0
   -0.8355  -20.0612   29.1652 H   0  0  0  0  0  0  0  0  0  0  0  0
   -1.7605  -18.4474   29.9033 H   0  0  0  0  0  0  0  0  0  0  0  0
   -1.1152  -18.2906   27.4362 H   0  0  0  0  0  0  0  0  0  0  0  0
   -0.0845  -19.3495   27.8430 H   0  0  0  0  0  0  0  0  0  0  0  0
    2.3300  -18.2595   29.6834 H   0  0  0  0  0  0  0  0  0  0  0  0
    2.6926  -15.9585   29.4017 H   0  0  0  0  0  0  0  0  0  0  0  0
    0.8154  -14.4431   29.2323 H   0  0  0  0  0  0  0  0  0  0  0  0
   -6.3496  -21.7678   26.8365 H   0  0  0  0  0  0  0  0  0  0  0  0
   -6.6226  -20.4330   27.7332 H   0  0  0  0  0  0  0  0  0  0  0  0
   -7.5609  -24.2316   29.4427 H   0  0  0  0  0  0  0  0  0  0  0  0
  -10.1686  -24.6853   29.1588 H   0  0  0  0  0  0  0  0  0  0  0  0
  -10.2770  -22.5178   31.0501 H   0  0  0  0  0  0  0  0  0  0  0  0
  -11.9478  -20.4447   29.6123 H   0  0  0  0  0  0  0  0  0  0  0  0
  -10.6902  -20.1771   30.8129 H   0  0  0  0  0  0  0  0  0  0  0  0
  -13.4038  -20.5479   31.5123 H   0  0  0  0  0  0  0  0  0  0  0  0
  -12.0528  -20.8420   32.6011 H   0  0  0  0  0  0  0  0  0  0  0  0
  -12.3637  -23.0984   32.4889 H   0  0  0  0  0  0  0  0  0  0  0  0
  -13.8934  -22.8031   31.6641 H   0  0  0  0  0  0  0  0  0  0  0  0
  -11.9758  -24.2049   30.4281 H   0  0  0  0  0  0  0  0  0  0  0  0
  -12.8536  -22.9960   29.4809 H   0  0  0  0  0  0  0  0  0  0  0  0
  1  2  1  0
  2  3  1  0
  3  4  1  0
  4  5  1  0
  5  6  2  0
  6  7  1  0
  7  8  1  0
  8  9  2  0
  2 10  1  0
 10 11  2  0
 10 12  1  0
 12 13  1  0
 13 14  1  0
 14 15  2  0
 15 16  1  0
 16 17  1  0
 17 18  1  0
 18 19  1  0
 19 20  1  0
 20 21  1  0
 16 22  1  0
  9  5  1  0
 22 13  2  0
 21 17  1  0
  1 23  1  0
  1 24  1  0
  1 25  1  0
  3 26  1  0
  3 27  1  0
  4 28  1  0
  4 29  1  0
  6 30  1  0
  7 31  1  0
  8 32  1  0
 12 33  1  0
 12 34  1  0
 14 35  1  0
 15 36  1  0
 17 37  1  0
 18 38  1  0
 18 39  1  0
 19 40  1  0
 19 41  1  0
 20 42  1  0
 20 43  1  0
 21 44  1  0
 21 45  1  0
M  END
>  <Energy>  (249) 
608.84794129595628

>  <compound_id>  (249) 
48747

>  <target_id>  (249) 
1

>  <reference_id>  (249) 
96

>  <inspiration_ids>  (249) 
[96, 116]

>  <energy_score>  (249) 
542.5113354375675

>  <distance_score>  (249) 
4.025861068565564

>  <path>  (249) 
/opt/xchem-fragalysis-2/maxwin/BulkDock/SCRATCH/511020/C48747-P96/C48747-P96.minimised.mol

>  <scratch_subdir>  (249) 
/opt/xchem-fragalysis-2/maxwin/BulkDock/SCRATCH/511020/C48747-P96

>  <fragmenstein_runtime>  (249) 
16.98544406890869

>  <fragmenstein_outcome>  (249) 
too moved

>  <fragmenstein_mode>  (249) 
expansion

>  <fragmenstein_error>  (249) 


$$$$
C48747-P116
     RDKit          3D

 45 47  0  0  0  0  0  0  0  0999 V2000
   -4.4674  -20.6524   24.9064 C   0  0  0  0  0  0  0  0  0  0  0  0
   -4.5173  -20.5870   26.2219 N   0  0  0  0  0  0  0  0  0  0  0  0
   -2.9871  -19.2431   25.9592 C   0  0  0  0  0  0  0  0  0  0  0  0
   -2.1703  -17.6401   26.7159 C   0  0  0  0  0  0  0  0  0  0  0  0
   -2.0739  -16.0088   27.3889 C   0  0  0  0  0  0  0  0  0  0  0  0
   -1.3007  -15.4509   28.4383 C   0  0  0  0  0  0  0  0  0  0  0  0
   -1.2613  -14.0681   28.3684 N   0  0  0  0  0  0  0  0  0  0  0  0
   -1.8312  -13.7237   27.2005 C   0  0  0  0  0  0  0  0  0  0  0  0
   -2.3300  -14.8086   26.6312 N   0  0  0  0  0  0  0  0  0  0  0  0
   -5.8281  -20.4083   26.6359 C   0  0  0  0  0  0  0  0  0  0  0  0
   -6.3846  -19.4367   26.8254 O   0  0  0  0  0  0  0  0  0  0  0  0
   -6.7149  -22.1796   27.1006 C   0  0  0  0  0  0  0  0  0  0  0  0
   -8.3119  -23.1304   27.2924 C   0  0  0  0  0  0  0  0  0  0  0  0
   -9.0827  -24.1622   26.4961 C   0  0  0  0  0  0  0  0  0  0  0  0
  -10.3394  -24.4071   26.9789 C   0  0  0  0  0  0  0  0  0  0  0  0
  -10.4270  -23.4538   27.9042 N   0  0  0  0  0  0  0  0  0  0  0  0
  -11.6573  -22.9676   28.4114 C   0  0  0  0  0  0  0  0  0  0  0  0
  -12.2402  -21.7945   27.7213 C   0  0  0  0  0  0  0  0  0  0  0  0
  -12.6258  -20.8985   28.9230 C   0  0  0  0  0  0  0  0  0  0  0  0
  -11.5900  -21.1357   29.8941 C   0  0  0  0  0  0  0  0  0  0  0  0
  -11.7612  -22.5052   29.8464 C   0  0  0  0  0  0  0  0  0  0  0  0
   -9.2967  -22.7774   28.1163 N   0  0  0  0  0  0  0  0  0  0  0  0
   -5.3315  -21.1293   24.5063 H   0  0  0  0  0  0  0  0  0  0  0  0
   -3.5407  -20.4365   24.2858 H   0  0  0  0  0  0  0  0  0  0  0  0
   -4.1948  -21.5807   24.6387 H   0  0  0  0  0  0  0  0  0  0  0  0
   -2.0510  -19.6616   25.9180 H   0  0  0  0  0  0  0  0  0  0  0  0
   -2.9110  -19.4016   27.0409 H   0  0  0  0  0  0  0  0  0  0  0  0
   -1.3507  -17.5559   26.0023 H   0  0  0  0  0  0  0  0  0  0  0  0
   -1.7408  -18.0564   27.6094 H   0  0  0  0  0  0  0  0  0  0  0  0
   -0.6336  -15.8277   29.1876 H   0  0  0  0  0  0  0  0  0  0  0  0
   -0.7438  -13.4544   28.9811 H   0  0  0  0  0  0  0  0  0  0  0  0
   -1.8683  -12.7161   26.8056 H   0  0  0  0  0  0  0  0  0  0  0  0
   -6.5167  -22.6976   26.1568 H   0  0  0  0  0  0  0  0  0  0  0  0
   -7.4983  -21.4963   27.4567 H   0  0  0  0  0  0  0  0  0  0  0  0
   -8.8180  -24.5473   25.5328 H   0  0  0  0  0  0  0  0  0  0  0  0
  -11.1606  -25.0126   26.6305 H   0  0  0  0  0  0  0  0  0  0  0  0
  -12.3539  -23.7480   28.1577 H   0  0  0  0  0  0  0  0  0  0  0  0
  -13.0524  -22.1713   27.1178 H   0  0  0  0  0  0  0  0  0  0  0  0
  -11.5382  -21.4071   27.0036 H   0  0  0  0  0  0  0  0  0  0  0  0
  -12.7551  -19.8425   28.8873 H   0  0  0  0  0  0  0  0  0  0  0  0
  -13.4716  -21.2363   29.4702 H   0  0  0  0  0  0  0  0  0  0  0  0
  -10.6742  -20.8209   29.5183 H   0  0  0  0  0  0  0  0  0  0  0  0
  -11.7783  -20.9272   30.9268 H   0  0  0  0  0  0  0  0  0  0  0  0
  -11.3042  -22.8924   30.7324 H   0  0  0  0  0  0  0  0  0  0  0  0
  -12.7902  -22.6733   30.1770 H   0  0  0  0  0  0  0  0  0  0  0  0
  1  2  1  0
  2  3  1  0
  3  4  1  0
  4  5  1  0
  5  6  2  0
  6  7  1  0
  7  8  1  0
  8  9  2  0
  2 10  1  0
 10 11  2  0
 10 12  1  0
 12 13  1  0
 13 14  1  0
 14 15  2  0
 15 16  1  0
 16 17  1  0
 17 18  1  0
 18 19  1  0
 19 20  1  0
 20 21  1  0
 16 22  1  0
  9  5  1  0
 22 13  2  0
 21 17  1  0
  1 23  1  0
  1 24  1  0
  1 25  1  0
  3 26  1  0
  3 27  1  0
  4 28  1  0
  4 29  1  0
  6 30  1  0
  7 31  1  0
  8 32  1  0
 12 33  1  0
 12 34  1  0
 14 35  1  0
 15 36  1  0
 17 37  1  0
 18 38  1  0
 18 39  1  0
 19 40  1  0
 19 41  1  0
 20 42  1  0
 20 43  1  0
 21 44  1  0
 21 45  1  0
M  END
>  <Energy>  (250) 
656.97504432698372

>  <compound_id>  (250) 
48747

>  <target_id>  (250) 
1

>  <reference_id>  (250) 
116

>  <inspiration_ids>  (250) 
[96, 116]

>  <energy_score>  (250) 
590.6384384686035

>  <distance_score>  (250) 
3.559076719093137

>  <path>  (250) 
/opt/xchem-fragalysis-2/maxwin/BulkDock/SCRATCH/511020/C48747-P116/C48747-P116.minimised.mol

>  <scratch_subdir>  (250) 
/opt/xchem-fragalysis-2/maxwin/BulkDock/SCRATCH/511020/C48747-P116

>  <fragmenstein_runtime>  (250) 
14.208235025405884

>  <fragmenstein_outcome>  (250) 
too moved

>  <fragmenstein_mode>  (250) 
expansion

>  <fragmenstein_error>  (250) 


$$$$
C18000-P96
     RDKit          3D

 36 38  0  0  0  0  0  0  0  0999 V2000
   -6.1519  -21.7477   27.3138 O   0  0  0  0  0  0  0  0  0  0  0  0
   -6.9787  -20.9738   27.6141 C   0  0  0  0  0  0  0  0  0  0  0  0
   -6.8231  -19.2983   27.2904 N   0  0  0  0  0  0  0  0  0  0  0  0
   -5.6056  -18.4000   26.4178 C   0  0  0  0  0  0  0  0  0  0  0  0
   -5.0194  -16.6409   26.9422 C   0  0  0  0  0  0  0  0  0  0  0  0
   -5.6250  -15.7722   28.1520 N   0  0  0  0  0  0  0  0  0  0  0  0
   -4.9327  -14.6291   28.3833 C   0  0  0  0  0  0  0  0  0  0  0  0
   -3.8089  -14.4593   27.4156 C   0  0  0  0  0  0  0  0  0  0  0  0
   -3.7086  -15.5477   26.4681 N   0  0  0  0  0  0  0  0  0  0  0  0
   -8.4213  -21.8526   28.3272 C   0  0  0  0  0  0  0  0  0  0  0  0
   -8.4984  -23.0089   29.2625 C   0  0  0  0  0  0  0  0  0  0  0  0
   -9.7747  -22.9435   29.8976 C   0  0  0  0  0  0  0  0  0  0  0  0
  -10.5501  -22.1248   29.1890 N   0  0  0  0  0  0  0  0  0  0  0  0
   -9.8594  -22.1408   27.9937 N   0  0  0  0  0  0  0  0  0  0  0  0
  -10.3315  -23.2570   27.1001 C   0  0  0  0  0  0  0  0  0  0  0  0
  -10.4124  -24.6976   27.6907 C   0  0  0  0  0  0  0  0  0  0  0  0
  -11.4057  -25.4003   26.7933 C   0  0  0  0  0  0  0  0  0  0  0  0
  -12.5032  -24.3824   26.6488 C   0  0  0  0  0  0  0  0  0  0  0  0
  -11.7745  -23.0464   26.6543 C   0  0  0  0  0  0  0  0  0  0  0  0
   -7.5688  -18.8319   27.6889 H   0  0  0  0  0  0  0  0  0  0  0  0
   -5.8465  -18.1274   25.4501 H   0  0  0  0  0  0  0  0  0  0  0  0
   -4.9557  -19.2300   26.0667 H   0  0  0  0  0  0  0  0  0  0  0  0
   -5.4305  -13.9785   29.0668 H   0  0  0  0  0  0  0  0  0  0  0  0
   -3.1628  -13.6064   27.1973 H   0  0  0  0  0  0  0  0  0  0  0  0
   -3.0086  -15.8719   25.8111 H   0  0  0  0  0  0  0  0  0  0  0  0
   -7.6955  -23.5998   29.6741 H   0  0  0  0  0  0  0  0  0  0  0  0
  -10.1316  -23.4127   30.8047 H   0  0  0  0  0  0  0  0  0  0  0  0
   -9.6925  -23.2769   26.2249 H   0  0  0  0  0  0  0  0  0  0  0  0
  -10.8367  -24.7317   28.6990 H   0  0  0  0  0  0  0  0  0  0  0  0
   -9.4532  -25.2161   27.7272 H   0  0  0  0  0  0  0  0  0  0  0  0
  -10.9485  -25.6060   25.8251 H   0  0  0  0  0  0  0  0  0  0  0  0
  -11.7804  -26.3231   27.2404 H   0  0  0  0  0  0  0  0  0  0  0  0
  -13.1772  -24.4427   27.5123 H   0  0  0  0  0  0  0  0  0  0  0  0
  -13.1189  -24.5292   25.7583 H   0  0  0  0  0  0  0  0  0  0  0  0
  -12.2601  -22.4343   27.4037 H   0  0  0  0  0  0  0  0  0  0  0  0
  -11.8166  -22.5706   25.6707 H   0  0  0  0  0  0  0  0  0  0  0  0
  1  2  2  0
  2  3  1  0
  3  4  1  0
  4  5  1  0
  5  6  2  0
  6  7  1  0
  7  8  2  0
  8  9  1  0
  2 10  1  0
 10 11  2  0
 11 12  1  0
 12 13  2  0
 13 14  1  0
 14 15  1  0
 15 16  1  0
 16 17  1  0
 17 18  1  0
 18 19  1  0
  9  5  1  0
 14 10  1  0
 19 15  1  0
  3 20  1  0
  4 21  1  0
  4 22  1  0
  7 23  1  0
  8 24  1  0
  9 25  1  0
 11 26  1  0
 12 27  1  0
 15 28  1  0
 16 29  1  0
 16 30  1  0
 17 31  1  0
 17 32  1  0
 18 33  1  0
 18 34  1  0
 19 35  1  0
 19 36  1  0
M  END
>  <Energy>  (251) 
314.55509009223601

>  <compound_id>  (251) 
18000

>  <target_id>  (251) 
1

>  <reference_id>  (251) 
96

>  <inspiration_ids>  (251) 
[96, 116]

>  <energy_score>  (251) 
291.1816295804864

>  <distance_score>  (251) 
3.7561340910230023

>  <path>  (251) 
/opt/xchem-fragalysis-2/maxwin/BulkDock/SCRATCH/511020/C18000-P96/C18000-P96.minimised.mol

>  <scratch_subdir>  (251) 
/opt/xchem-fragalysis-2/maxwin/BulkDock/SCRATCH/511020/C18000-P96

>  <fragmenstein_runtime>  (251) 
9.60315227508545

>  <fragmenstein_outcome>  (251) 
too moved

>  <fragmenstein_mode>  (251) 
expansion

>  <fragmenstein_error>  (251) 


$$$$
C18000-P116
     RDKit          3D

 36 38  0  0  0  0  0  0  0  0999 V2000
   -5.3673  -20.4212   25.9747 O   0  0  0  0  0  0  0  0  0  0  0  0
   -6.0455  -19.9561   26.8752 C   0  0  0  0  0  0  0  0  0  0  0  0
   -5.5016  -18.4459   27.7354 N   0  0  0  0  0  0  0  0  0  0  0  0
   -3.8218  -17.3742   27.6061 C   0  0  0  0  0  0  0  0  0  0  0  0
   -2.5191  -15.9299   27.8149 C   0  0  0  0  0  0  0  0  0  0  0  0
   -2.3007  -14.9804   26.8678 N   0  0  0  0  0  0  0  0  0  0  0  0
   -1.6772  -13.8240   27.3431 C   0  0  0  0  0  0  0  0  0  0  0  0
   -1.2290  -14.0861   28.5847 C   0  0  0  0  0  0  0  0  0  0  0  0
   -1.7632  -15.3187   28.8758 N   0  0  0  0  0  0  0  0  0  0  0  0
   -7.5885  -21.0693   27.3972 C   0  0  0  0  0  0  0  0  0  0  0  0
   -6.7464  -22.2220   27.4882 C   0  0  0  0  0  0  0  0  0  0  0  0
   -7.4075  -22.8754   26.5068 C   0  0  0  0  0  0  0  0  0  0  0  0
   -8.3934  -23.4079   27.1537 N   0  0  0  0  0  0  0  0  0  0  0  0
   -8.5793  -22.4048   27.9470 N   0  0  0  0  0  0  0  0  0  0  0  0
  -10.2064  -22.3791   28.1414 C   0  0  0  0  0  0  0  0  0  0  0  0
  -10.9044  -23.5818   27.4804 C   0  0  0  0  0  0  0  0  0  0  0  0
  -12.2904  -23.0453   27.3267 C   0  0  0  0  0  0  0  0  0  0  0  0
  -12.3788  -21.9170   28.3673 C   0  0  0  0  0  0  0  0  0  0  0  0
  -11.1643  -21.9452   29.2200 C   0  0  0  0  0  0  0  0  0  0  0  0
   -6.2388  -18.1665   28.3944 H   0  0  0  0  0  0  0  0  0  0  0  0
   -3.0456  -18.1246   27.5597 H   0  0  0  0  0  0  0  0  0  0  0  0
   -4.2193  -16.8542   28.4565 H   0  0  0  0  0  0  0  0  0  0  0  0
   -1.5457  -12.9479   26.7191 H   0  0  0  0  0  0  0  0  0  0  0  0
   -0.6504  -13.5169   29.2972 H   0  0  0  0  0  0  0  0  0  0  0  0
   -1.6507  -15.6009   29.8265 H   0  0  0  0  0  0  0  0  0  0  0  0
   -5.6812  -22.1571   27.4565 H   0  0  0  0  0  0  0  0  0  0  0  0
   -7.1340  -23.2369   25.5358 H   0  0  0  0  0  0  0  0  0  0  0  0
  -10.4023  -21.4444   27.6158 H   0  0  0  0  0  0  0  0  0  0  0  0
  -10.8293  -24.4450   28.1354 H   0  0  0  0  0  0  0  0  0  0  0  0
  -10.5617  -23.9320   26.5041 H   0  0  0  0  0  0  0  0  0  0  0  0
  -12.9749  -23.8789   27.3647 H   0  0  0  0  0  0  0  0  0  0  0  0
  -12.4174  -22.6227   26.3225 H   0  0  0  0  0  0  0  0  0  0  0  0
  -13.1612  -21.6931   29.0702 H   0  0  0  0  0  0  0  0  0  0  0  0
  -12.4039  -21.0519   27.7456 H   0  0  0  0  0  0  0  0  0  0  0  0
  -11.3392  -22.5770   30.0605 H   0  0  0  0  0  0  0  0  0  0  0  0
  -11.0189  -20.9650   29.6431 H   0  0  0  0  0  0  0  0  0  0  0  0
  1  2  2  0
  2  3  1  0
  3  4  1  0
  4  5  1  0
  5  6  2  0
  6  7  1  0
  7  8  2  0
  8  9  1  0
  2 10  1  0
 10 11  2  0
 11 12  1  0
 12 13  2  0
 13 14  1  0
 14 15  1  0
 15 16  1  0
 16 17  1  0
 17 18  1  0
 18 19  1  0
  9  5  1  0
 14 10  1  0
 19 15  1  0
  3 20  1  0
  4 21  1  0
  4 22  1  0
  7 23  1  0
  8 24  1  0
  9 25  1  0
 11 26  1  0
 12 27  1  0
 15 28  1  0
 16 29  1  0
 16 30  1  0
 17 31  1  0
 17 32  1  0
 18 33  1  0
 18 34  1  0
 19 35  1  0
 19 36  1  0
M  END
>  <Energy>  (252) 
592.03401722088415

>  <compound_id>  (252) 
18000

>  <target_id>  (252) 
1

>  <reference_id>  (252) 
116

>  <inspiration_ids>  (252) 
[96, 116]

>  <energy_score>  (252) 
568.6605567091417

>  <distance_score>  (252) 
4.109381910201438

>  <path>  (252) 
/opt/xchem-fragalysis-2/maxwin/BulkDock/SCRATCH/511020/C18000-P116/C18000-P116.minimised.mol

>  <scratch_subdir>  (252) 
/opt/xchem-fragalysis-2/maxwin/BulkDock/SCRATCH/511020/C18000-P116

>  <fragmenstein_runtime>  (252) 
12.113815307617188

>  <fragmenstein_outcome>  (252) 
too moved

>  <fragmenstein_mode>  (252) 
expansion

>  <fragmenstein_error>  (252) 


$$$$
C18002-P96
     RDKit          3D

 39 41  0  0  0  0  0  0  0  0999 V2000
   -4.6642  -19.3675   25.3825 C   0  0  0  0  0  0  0  0  0  0  0  0
   -5.5653  -18.4106   26.3583 C   0  0  0  0  0  0  0  0  0  0  0  0
   -6.7969  -19.2568   27.2726 N   0  0  0  0  0  0  0  0  0  0  0  0
   -6.9901  -20.8583   27.6051 C   0  0  0  0  0  0  0  0  0  0  0  0
   -6.2288  -21.7110   27.3220 O   0  0  0  0  0  0  0  0  0  0  0  0
   -8.5027  -21.5899   28.3351 C   0  0  0  0  0  0  0  0  0  0  0  0
   -8.8271  -22.9785   28.7450 C   0  0  0  0  0  0  0  0  0  0  0  0
  -10.1488  -23.0569   29.0921 C   0  0  0  0  0  0  0  0  0  0  0  0
  -10.5339  -21.7664   29.2023 N   0  0  0  0  0  0  0  0  0  0  0  0
  -11.4797  -21.2742   30.1944 C   0  0  0  0  0  0  0  0  0  0  0  0
  -12.4896  -22.3073   30.7161 C   0  0  0  0  0  0  0  0  0  0  0  0
  -13.1059  -21.6298   31.9298 C   0  0  0  0  0  0  0  0  0  0  0  0
  -11.9371  -20.9116   32.5894 C   0  0  0  0  0  0  0  0  0  0  0  0
  -10.8438  -20.8214   31.5222 C   0  0  0  0  0  0  0  0  0  0  0  0
   -9.6976  -20.9067   28.5514 N   0  0  0  0  0  0  0  0  0  0  0  0
   -5.0084  -16.6444   26.9274 C   0  0  0  0  0  0  0  0  0  0  0  0
   -5.6218  -15.7796   28.1443 N   0  0  0  0  0  0  0  0  0  0  0  0
   -4.9333  -14.6322   28.3806 C   0  0  0  0  0  0  0  0  0  0  0  0
   -3.8081  -14.4594   27.4144 C   0  0  0  0  0  0  0  0  0  0  0  0
   -3.6993  -15.5463   26.4662 N   0  0  0  0  0  0  0  0  0  0  0  0
   -4.5154  -20.1308   26.1215 H   0  0  0  0  0  0  0  0  0  0  0  0
   -4.8326  -20.0543   24.5595 H   0  0  0  0  0  0  0  0  0  0  0  0
   -4.0821  -18.7516   24.7248 H   0  0  0  0  0  0  0  0  0  0  0  0
   -5.9932  -18.0957   25.4963 H   0  0  0  0  0  0  0  0  0  0  0  0
   -7.5260  -18.7531   27.6856 H   0  0  0  0  0  0  0  0  0  0  0  0
   -8.2233  -23.8635   28.8687 H   0  0  0  0  0  0  0  0  0  0  0  0
  -10.7288  -23.8947   29.4482 H   0  0  0  0  0  0  0  0  0  0  0  0
  -11.9883  -20.4260   29.7300 H   0  0  0  0  0  0  0  0  0  0  0  0
  -11.9963  -23.2252   31.0590 H   0  0  0  0  0  0  0  0  0  0  0  0
  -13.2162  -22.6003   29.9617 H   0  0  0  0  0  0  0  0  0  0  0  0
  -13.5852  -22.3452   32.6050 H   0  0  0  0  0  0  0  0  0  0  0  0
  -13.8632  -20.9007   31.6252 H   0  0  0  0  0  0  0  0  0  0  0  0
  -11.5710  -21.4776   33.4539 H   0  0  0  0  0  0  0  0  0  0  0  0
  -12.2344  -19.9249   32.9556 H   0  0  0  0  0  0  0  0  0  0  0  0
  -10.0346  -21.4984   31.8199 H   0  0  0  0  0  0  0  0  0  0  0  0
  -10.4254  -19.8138   31.4550 H   0  0  0  0  0  0  0  0  0  0  0  0
   -5.4312  -13.9839   29.0665 H   0  0  0  0  0  0  0  0  0  0  0  0
   -3.1633  -13.6043   27.2008 H   0  0  0  0  0  0  0  0  0  0  0  0
   -2.9995  -15.8634   25.8055 H   0  0  0  0  0  0  0  0  0  0  0  0
  1  2  1  0
  2  3  1  0
  3  4  1  0
  4  5  2  0
  4  6  1  0
  6  7  1  0
  7  8  2  0
  8  9  1  0
  9 10  1  0
 10 11  1  0
 11 12  1  0
 12 13  1  0
 13 14  1  0
  9 15  1  0
  2 16  1  0
 16 17  2  0
 17 18  1  0
 18 19  2  0
 19 20  1  0
 15  6  2  0
 20 16  1  0
 14 10  1  0
  1 21  1  0
  1 22  1  0
  1 23  1  0
  2 24  1  0
  3 25  1  0
  7 26  1  0
  8 27  1  0
 10 28  1  0
 11 29  1  0
 11 30  1  0
 12 31  1  0
 12 32  1  0
 13 33  1  0
 13 34  1  0
 14 35  1  0
 14 36  1  0
 18 37  1  0
 19 38  1  0
 20 39  1  0
M  END
>  <Energy>  (253) 
326.49264209605479

>  <compound_id>  (253) 
18002

>  <target_id>  (253) 
1

>  <reference_id>  (253) 
96

>  <inspiration_ids>  (253) 
[96, 116]

>  <energy_score>  (253) 
269.74715275336155

>  <distance_score>  (253) 
3.7668489093543482

>  <path>  (253) 
/opt/xchem-fragalysis-2/maxwin/BulkDock/SCRATCH/511020/C18002-P96/C18002-P96.minimised.mol

>  <scratch_subdir>  (253) 
/opt/xchem-fragalysis-2/maxwin/BulkDock/SCRATCH/511020/C18002-P96

>  <fragmenstein_runtime>  (253) 
8.05177116394043

>  <fragmenstein_outcome>  (253) 
too moved

>  <fragmenstein_mode>  (253) 
expansion

>  <fragmenstein_error>  (253) 


$$$$
C18002-P116
     RDKit          3D

 39 41  0  0  0  0  0  0  0  0999 V2000
   -1.7431  -18.6093   25.7696 C   0  0  0  0  0  0  0  0  0  0  0  0
   -2.9826  -19.3892   26.5657 C   0  0  0  0  0  0  0  0  0  0  0  0
   -4.8038  -20.3659   26.1260 N   0  0  0  0  0  0  0  0  0  0  0  0
   -5.7207  -21.8547   27.0216 C   0  0  0  0  0  0  0  0  0  0  0  0
   -5.1765  -22.4254   27.9264 O   0  0  0  0  0  0  0  0  0  0  0  0
   -7.4509  -22.5124   26.8668 C   0  0  0  0  0  0  0  0  0  0  0  0
   -8.3057  -23.7128   26.4268 C   0  0  0  0  0  0  0  0  0  0  0  0
   -9.5275  -24.0220   27.0691 C   0  0  0  0  0  0  0  0  0  0  0  0
   -9.5876  -23.0159   27.9544 N   0  0  0  0  0  0  0  0  0  0  0  0
  -10.8288  -22.2230   28.1767 C   0  0  0  0  0  0  0  0  0  0  0  0
  -12.1147  -22.9091   28.2332 C   0  0  0  0  0  0  0  0  0  0  0  0
  -12.7102  -22.3693   29.6169 C   0  0  0  0  0  0  0  0  0  0  0  0
  -11.7586  -21.8251   30.5080 C   0  0  0  0  0  0  0  0  0  0  0  0
  -11.1626  -21.2970   29.3145 C   0  0  0  0  0  0  0  0  0  0  0  0
   -8.2237  -22.3804   27.9750 N   0  0  0  0  0  0  0  0  0  0  0  0
   -2.7811  -17.6116   27.2806 C   0  0  0  0  0  0  0  0  0  0  0  0
   -1.6644  -17.3078   27.9522 N   0  0  0  0  0  0  0  0  0  0  0  0
   -1.4191  -15.9293   28.1758 C   0  0  0  0  0  0  0  0  0  0  0  0
   -2.1398  -15.3162   27.2623 C   0  0  0  0  0  0  0  0  0  0  0  0
   -2.4801  -16.4444   26.4811 N   0  0  0  0  0  0  0  0  0  0  0  0
   -1.0919  -17.9254   26.3073 H   0  0  0  0  0  0  0  0  0  0  0  0
   -2.0723  -17.8140   25.1850 H   0  0  0  0  0  0  0  0  0  0  0  0
   -0.6954  -18.8038   25.6187 H   0  0  0  0  0  0  0  0  0  0  0  0
   -2.3927  -19.8696   27.3309 H   0  0  0  0  0  0  0  0  0  0  0  0
   -5.4207  -19.9550   25.4646 H   0  0  0  0  0  0  0  0  0  0  0  0
   -8.1656  -24.1672   25.4562 H   0  0  0  0  0  0  0  0  0  0  0  0
  -10.3425  -24.6737   26.7928 H   0  0  0  0  0  0  0  0  0  0  0  0
  -10.9611  -21.6271   27.2830 H   0  0  0  0  0  0  0  0  0  0  0  0
  -11.9731  -23.9570   28.0776 H   0  0  0  0  0  0  0  0  0  0  0  0
  -12.7347  -22.5834   27.3876 H   0  0  0  0  0  0  0  0  0  0  0  0
  -13.2447  -23.0628   30.2297 H   0  0  0  0  0  0  0  0  0  0  0  0
  -13.3962  -21.5405   29.4524 H   0  0  0  0  0  0  0  0  0  0  0  0
  -11.4419  -22.5973   31.1827 H   0  0  0  0  0  0  0  0  0  0  0  0
  -12.2734  -21.0906   31.0923 H   0  0  0  0  0  0  0  0  0  0  0  0
  -10.5074  -20.5807   29.5737 H   0  0  0  0  0  0  0  0  0  0  0  0
  -11.9700  -20.6356   28.9612 H   0  0  0  0  0  0  0  0  0  0  0  0
   -0.7078  -15.5324   28.8896 H   0  0  0  0  0  0  0  0  0  0  0  0
   -2.2076  -14.2946   26.9060 H   0  0  0  0  0  0  0  0  0  0  0  0
   -2.8724  -16.3441   25.5560 H   0  0  0  0  0  0  0  0  0  0  0  0
  1  2  1  0
  2  3  1  0
  3  4  1  0
  4  5  2  0
  4  6  1  0
  6  7  1  0
  7  8  2  0
  8  9  1  0
  9 10  1  0
 10 11  1  0
 11 12  1  0
 12 13  1  0
 13 14  1  0
  9 15  1  0
  2 16  1  0
 16 17  2  0
 17 18  1  0
 18 19  2  0
 19 20  1  0
 15  6  2  0
 20 16  1  0
 14 10  1  0
  1 21  1  0
  1 22  1  0
  1 23  1  0
  2 24  1  0
  3 25  1  0
  7 26  1  0
  8 27  1  0
 10 28  1  0
 11 29  1  0
 11 30  1  0
 12 31  1  0
 12 32  1  0
 13 33  1  0
 13 34  1  0
 14 35  1  0
 14 36  1  0
 18 37  1  0
 19 38  1  0
 20 39  1  0
M  END
>  <Energy>  (254) 
740.60782308757177

>  <compound_id>  (254) 
18002

>  <target_id>  (254) 
1

>  <reference_id>  (254) 
116

>  <inspiration_ids>  (254) 
[96, 116]

>  <energy_score>  (254) 
683.862333744876

>  <distance_score>  (254) 
3.6823025443252604

>  <path>  (254) 
/opt/xchem-fragalysis-2/maxwin/BulkDock/SCRATCH/511020/C18002-P116/C18002-P116.minimised.mol

>  <scratch_subdir>  (254) 
/opt/xchem-fragalysis-2/maxwin/BulkDock/SCRATCH/511020/C18002-P116

>  <fragmenstein_runtime>  (254) 
18.129437923431396

>  <fragmenstein_outcome>  (254) 
too moved

>  <fragmenstein_mode>  (254) 
expansion

>  <fragmenstein_error>  (254) 


$$$$
C18003-P96
     RDKit          3D

 36 38  0  0  0  0  0  0  0  0999 V2000
   -9.3806  -12.4473   33.7576 O   0  0  0  0  0  0  0  0  0  0  0  0
   -9.0727  -13.3588   34.4762 C   0  0  0  0  0  0  0  0  0  0  0  0
   -9.8168  -13.5408   35.8003 C   0  0  0  0  0  0  0  0  0  0  0  0
  -10.7823  -14.6836   35.7897 C   0  0  0  0  0  0  0  0  0  0  0  0
  -11.0267  -15.4871   36.8099 N   0  0  0  0  0  0  0  0  0  0  0  0
  -11.9849  -16.3713   36.3815 C   0  0  0  0  0  0  0  0  0  0  0  0
  -12.3623  -16.0775   35.0987 C   0  0  0  0  0  0  0  0  0  0  0  0
  -11.5819  -15.0152   34.7233 N   0  0  0  0  0  0  0  0  0  0  0  0
   -8.0554  -14.3734   34.3298 N   0  0  0  0  0  0  0  0  0  0  0  0
   -7.2076  -14.6484   33.2949 C   0  0  0  0  0  0  0  0  0  0  0  0
   -6.6697  -15.8311   32.8770 C   0  0  0  0  0  0  0  0  0  0  0  0
   -6.0165  -15.7938   31.6950 N   0  0  0  0  0  0  0  0  0  0  0  0
   -5.7948  -14.5202   31.2770 N   0  0  0  0  0  0  0  0  0  0  0  0
   -5.4886  -14.1554   29.5221 C   0  0  0  0  0  0  0  0  0  0  0  0
   -5.3651  -14.8586   28.3441 C   0  0  0  0  0  0  0  0  0  0  0  0
   -3.7799  -14.5524   27.2951 C   0  0  0  0  0  0  0  0  0  0  0  0
   -3.0420  -13.1976   27.6234 C   0  0  0  0  0  0  0  0  0  0  0  0
   -3.6718  -13.5982   28.9440 C   0  0  0  0  0  0  0  0  0  0  0  0
   -6.9229  -13.8957   32.2101 C   0  0  0  0  0  0  0  0  0  0  0  0
  -10.3591  -12.6140   36.0221 H   0  0  0  0  0  0  0  0  0  0  0  0
   -9.0828  -13.6736   36.6040 H   0  0  0  0  0  0  0  0  0  0  0  0
  -12.3484  -17.1645   37.0209 H   0  0  0  0  0  0  0  0  0  0  0  0
  -13.0655  -16.5334   34.4191 H   0  0  0  0  0  0  0  0  0  0  0  0
  -11.5313  -14.6341   33.7815 H   0  0  0  0  0  0  0  0  0  0  0  0
   -8.1345  -15.0331   35.0933 H   0  0  0  0  0  0  0  0  0  0  0  0
   -6.7612  -16.7935   33.3616 H   0  0  0  0  0  0  0  0  0  0  0  0
   -6.0870  -13.2183   29.4321 H   0  0  0  0  0  0  0  0  0  0  0  0
   -5.6755  -15.8396   28.3981 H   0  0  0  0  0  0  0  0  0  0  0  0
   -6.2206  -14.3308   27.8963 H   0  0  0  0  0  0  0  0  0  0  0  0
   -3.9809  -15.0928   26.3852 H   0  0  0  0  0  0  0  0  0  0  0  0
   -2.9878  -15.2772   26.9470 H   0  0  0  0  0  0  0  0  0  0  0  0
   -2.0894  -12.8329   28.0617 H   0  0  0  0  0  0  0  0  0  0  0  0
   -2.4711  -13.3251   26.6676 H   0  0  0  0  0  0  0  0  0  0  0  0
   -4.0260  -12.5879   28.7799 H   0  0  0  0  0  0  0  0  0  0  0  0
   -2.9151  -13.6669   29.7577 H   0  0  0  0  0  0  0  0  0  0  0  0
   -7.6498  -13.2017   31.7880 H   0  0  0  0  0  0  0  0  0  0  0  0
  1  2  2  0
  2  3  1  0
  3  4  1  0
  4  5  2  0
  5  6  1  0
  6  7  2  0
  7  8  1  0
  2  9  1  0
  9 10  1  0
 10 11  1  0
 11 12  2  0
 12 13  1  0
 13 14  1  0
 14 15  1  0
 15 16  1  0
 16 17  1  0
 17 18  1  0
 13 19  1  0
  8  4  1  0
 19 10  2  0
 18 14  1  0
  3 20  1  0
  3 21  1  0
  6 22  1  0
  7 23  1  0
  8 24  1  0
  9 25  1  0
 11 26  1  0
 14 27  1  0
 15 28  1  0
 15 29  1  0
 16 30  1  0
 16 31  1  0
 17 32  1  0
 17 33  1  0
 18 34  1  0
 18 35  1  0
 19 36  1  0
M  END
>  <Energy>  (255) 
400.40815636375748

>  <compound_id>  (255) 
18003

>  <target_id>  (255) 
1

>  <reference_id>  (255) 
96

>  <inspiration_ids>  (255) 
[96, 116]

>  <energy_score>  (255) 
359.4870153312026

>  <distance_score>  (255) 
9.09578330487722

>  <path>  (255) 
/opt/xchem-fragalysis-2/maxwin/BulkDock/SCRATCH/511020/C18003-P96/C18003-P96.minimised.mol

>  <scratch_subdir>  (255) 
/opt/xchem-fragalysis-2/maxwin/BulkDock/SCRATCH/511020/C18003-P96

>  <fragmenstein_runtime>  (255) 
35.87667536735535

>  <fragmenstein_outcome>  (255) 
too moved

>  <fragmenstein_mode>  (255) 
expansion

>  <fragmenstein_error>  (255) 


$$$$
C18003-P116
     RDKit          3D

 36 38  0  0  0  0  0  0  0  0999 V2000
   -5.2835  -20.4961   25.9342 O   0  0  0  0  0  0  0  0  0  0  0  0
   -6.0128  -20.0822   26.8487 C   0  0  0  0  0  0  0  0  0  0  0  0
   -7.5242  -21.3519   27.3616 C   0  0  0  0  0  0  0  0  0  0  0  0
   -8.5518  -22.8582   27.7137 C   0  0  0  0  0  0  0  0  0  0  0  0
   -9.8255  -22.6024   28.2473 N   0  0  0  0  0  0  0  0  0  0  0  0
  -10.8092  -23.4643   27.8664 C   0  0  0  0  0  0  0  0  0  0  0  0
  -10.2650  -24.3420   27.0050 C   0  0  0  0  0  0  0  0  0  0  0  0
   -8.9511  -23.9239   26.8702 N   0  0  0  0  0  0  0  0  0  0  0  0
   -5.6995  -18.6011   27.7741 N   0  0  0  0  0  0  0  0  0  0  0  0
   -4.4396  -17.5712   27.7734 C   0  0  0  0  0  0  0  0  0  0  0  0
   -4.4602  -16.5292   28.7379 C   0  0  0  0  0  0  0  0  0  0  0  0
   -3.3906  -15.6929   28.5592 N   0  0  0  0  0  0  0  0  0  0  0  0
   -2.6703  -16.4416   27.8947 N   0  0  0  0  0  0  0  0  0  0  0  0
   -1.6162  -15.6294   27.5719 C   0  0  0  0  0  0  0  0  0  0  0  0
   -2.2401  -14.6714   26.5105 C   0  0  0  0  0  0  0  0  0  0  0  0
   -2.7993  -15.9242   25.3811 C   0  0  0  0  0  0  0  0  0  0  0  0
   -1.8311  -17.1987   25.7866 C   0  0  0  0  0  0  0  0  0  0  0  0
   -1.0371  -16.8573   27.0222 C   0  0  0  0  0  0  0  0  0  0  0  0
   -3.1379  -17.6636   27.6087 C   0  0  0  0  0  0  0  0  0  0  0  0
   -6.7542  -22.0039   27.8133 H   0  0  0  0  0  0  0  0  0  0  0  0
   -8.2204  -20.7531   27.8201 H   0  0  0  0  0  0  0  0  0  0  0  0
  -11.8355  -23.3345   28.1732 H   0  0  0  0  0  0  0  0  0  0  0  0
  -10.6808  -25.1366   26.4051 H   0  0  0  0  0  0  0  0  0  0  0  0
   -8.4186  -24.2110   26.0794 H   0  0  0  0  0  0  0  0  0  0  0  0
   -6.4855  -18.4335   28.4089 H   0  0  0  0  0  0  0  0  0  0  0  0
   -5.2210  -16.3676   29.5247 H   0  0  0  0  0  0  0  0  0  0  0  0
   -1.1060  -15.1659   28.4247 H   0  0  0  0  0  0  0  0  0  0  0  0
   -1.6116  -13.8579   26.1310 H   0  0  0  0  0  0  0  0  0  0  0  0
   -2.9442  -13.9122   26.7247 H   0  0  0  0  0  0  0  0  0  0  0  0
   -2.7554  -15.4365   24.3866 H   0  0  0  0  0  0  0  0  0  0  0  0
   -3.8116  -16.0813   25.2380 H   0  0  0  0  0  0  0  0  0  0  0  0
   -0.9496  -17.5497   25.3545 H   0  0  0  0  0  0  0  0  0  0  0  0
   -2.2886  -18.1561   25.7165 H   0  0  0  0  0  0  0  0  0  0  0  0
   -0.0024  -16.7524   26.8557 H   0  0  0  0  0  0  0  0  0  0  0  0
   -1.0683  -17.6638   27.7256 H   0  0  0  0  0  0  0  0  0  0  0  0
   -2.6191  -18.5520   27.2709 H   0  0  0  0  0  0  0  0  0  0  0  0
  1  2  2  0
  2  3  1  0
  3  4  1  0
  4  5  2  0
  5  6  1  0
  6  7  2  0
  7  8  1  0
  2  9  1  0
  9 10  1  0
 10 11  1  0
 11 12  2  0
 12 13  1  0
 13 14  1  0
 14 15  1  0
 15 16  1  0
 16 17  1  0
 17 18  1  0
 13 19  1  0
  8  4  1  0
 19 10  2  0
 18 14  1  0
  3 20  1  0
  3 21  1  0
  6 22  1  0
  7 23  1  0
  8 24  1  0
  9 25  1  0
 11 26  1  0
 14 27  1  0
 15 28  1  0
 15 29  1  0
 16 30  1  0
 16 31  1  0
 17 32  1  0
 17 33  1  0
 18 34  1  0
 18 35  1  0
 19 36  1  0
M  END
>  <Energy>  (256) 
523.81397076366704

>  <compound_id>  (256) 
18003

>  <target_id>  (256) 
1

>  <reference_id>  (256) 
116

>  <inspiration_ids>  (256) 
[96, 116]

>  <energy_score>  (256) 
482.89282973111347

>  <distance_score>  (256) 
5.756030855494689

>  <path>  (256) 
/opt/xchem-fragalysis-2/maxwin/BulkDock/SCRATCH/511020/C18003-P116/C18003-P116.minimised.mol

>  <scratch_subdir>  (256) 
/opt/xchem-fragalysis-2/maxwin/BulkDock/SCRATCH/511020/C18003-P116

>  <fragmenstein_runtime>  (256) 
33.15803837776184

>  <fragmenstein_outcome>  (256) 
too moved

>  <fragmenstein_mode>  (256) 
expansion

>  <fragmenstein_error>  (256) 


$$$$
C18004-P96
     RDKit          3D

 45 46  0  0  0  0  0  0  0  0999 V2000
   -9.4329  -23.1073   27.9735 C   0  0  0  0  0  0  0  0  0  0  0  0
   -9.5771  -21.7636   28.6449 C   0  0  0  0  0  0  0  0  0  0  0  0
  -10.3861  -21.9714   30.4521 C   0  0  0  0  0  0  0  0  0  0  0  0
  -10.0606  -23.1418   31.9114 C   0  0  0  0  0  0  0  0  0  0  0  0
   -8.6010  -23.5847   31.7456 C   0  0  0  0  0  0  0  0  0  0  0  0
  -10.2985  -23.5789   33.6635 N   0  0  0  0  0  0  0  0  0  0  0  0
  -11.4941  -23.1593   34.7503 C   0  0  0  0  0  0  0  0  0  0  0  0
  -12.4162  -22.3803   34.5742 O   0  0  0  0  0  0  0  0  0  0  0  0
  -11.4773  -24.1924   36.5223 C   0  0  0  0  0  0  0  0  0  0  0  0
  -12.2990  -24.4197   38.3126 N   0  0  0  0  0  0  0  0  0  0  0  0
  -12.4844  -24.0474   39.9527 C   0  0  0  0  0  0  0  0  0  0  0  0
  -12.7940  -25.1913   40.6867 C   0  0  0  0  0  0  0  0  0  0  0  0
  -13.3241  -26.1929   39.8506 C   0  0  0  0  0  0  0  0  0  0  0  0
  -13.0682  -26.0368   38.5389 N   0  0  0  0  0  0  0  0  0  0  0  0
   -9.2708  -20.0550   28.0597 N   0  0  0  0  0  0  0  0  0  0  0  0
   -7.6298  -19.1299   27.5406 C   0  0  0  0  0  0  0  0  0  0  0  0
   -6.5499  -19.6747   27.4484 O   0  0  0  0  0  0  0  0  0  0  0  0
   -8.1346  -17.1079   27.4030 C   0  0  0  0  0  0  0  0  0  0  0  0
   -6.7820  -15.6835   27.6475 C   0  0  0  0  0  0  0  0  0  0  0  0
   -5.9017  -15.7967   28.7363 N   0  0  0  0  0  0  0  0  0  0  0  0
   -5.7286  -14.6816   29.6129 C   0  0  0  0  0  0  0  0  0  0  0  0
   -5.0725  -14.3625   28.5960 C   0  0  0  0  0  0  0  0  0  0  0  0
   -6.3696  -14.1805   27.9302 N   0  0  0  0  0  0  0  0  0  0  0  0
   -8.8058  -23.7675   28.5725 H   0  0  0  0  0  0  0  0  0  0  0  0
   -9.0919  -23.0526   26.9509 H   0  0  0  0  0  0  0  0  0  0  0  0
  -10.4053  -23.6178   27.9380 H   0  0  0  0  0  0  0  0  0  0  0  0
  -10.6002  -21.5913   28.2500 H   0  0  0  0  0  0  0  0  0  0  0  0
  -11.4240  -22.2302   30.1927 H   0  0  0  0  0  0  0  0  0  0  0  0
  -10.4378  -20.9611   30.8839 H   0  0  0  0  0  0  0  0  0  0  0  0
  -10.6741  -23.9733   31.5307 H   0  0  0  0  0  0  0  0  0  0  0  0
   -8.2888  -23.5853   30.7023 H   0  0  0  0  0  0  0  0  0  0  0  0
   -7.9462  -22.9241   32.3191 H   0  0  0  0  0  0  0  0  0  0  0  0
   -8.4559  -24.6007   32.1293 H   0  0  0  0  0  0  0  0  0  0  0  0
   -9.6279  -24.1819   34.1225 H   0  0  0  0  0  0  0  0  0  0  0  0
  -10.4664  -23.9030   36.6530 H   0  0  0  0  0  0  0  0  0  0  0  0
  -12.4431  -23.7014   36.2395 H   0  0  0  0  0  0  0  0  0  0  0  0
  -12.2120  -23.1164   40.3745 H   0  0  0  0  0  0  0  0  0  0  0  0
  -12.5767  -25.3234   41.7270 H   0  0  0  0  0  0  0  0  0  0  0  0
  -13.7481  -27.1339   40.1641 H   0  0  0  0  0  0  0  0  0  0  0  0
  -10.0010  -19.4698   27.9879 H   0  0  0  0  0  0  0  0  0  0  0  0
   -8.9153  -16.6870   26.7477 H   0  0  0  0  0  0  0  0  0  0  0  0
   -8.6046  -16.6925   28.2262 H   0  0  0  0  0  0  0  0  0  0  0  0
   -5.6258  -14.7154   30.7150 H   0  0  0  0  0  0  0  0  0  0  0  0
   -4.0286  -14.0231   28.4802 H   0  0  0  0  0  0  0  0  0  0  0  0
   -6.7926  -13.3406   27.5368 H   0  0  0  0  0  0  0  0  0  0  0  0
  1  2  1  0
  2  3  1  0
  3  4  1  0
  4  5  1  0
  4  6  1  0
  6  7  1  0
  7  8  2  0
  7  9  1  0
  9 10  1  0
 10 11  1  0
 11 12  2  0
 12 13  1  0
 13 14  2  0
  2 15  1  0
 15 16  1  0
 16 17  2  0
 16 18  1  0
 18 19  1  0
 19 20  2  0
 20 21  1  0
 21 22  2  0
 22 23  1  0
 14 10  1  0
 23 19  1  0
  1 24  1  0
  1 25  1  0
  1 26  1  0
  2 27  1  0
  3 28  1  0
  3 29  1  0
  4 30  1  0
  5 31  1  0
  5 32  1  0
  5 33  1  0
  6 34  1  0
  9 35  1  0
  9 36  1  0
 11 37  1  0
 12 38  1  0
 13 39  1  0
 15 40  1  0
 18 41  1  0
 18 42  1  0
 21 43  1  0
 22 44  1  0
 23 45  1  0
M  END
>  <Energy>  (257) 
1022.7781345359347

>  <compound_id>  (257) 
18004

>  <target_id>  (257) 
1

>  <reference_id>  (257) 
96

>  <inspiration_ids>  (257) 
[96, 116]

>  <energy_score>  (257) 
967.6711858274384

>  <distance_score>  (257) 
4.697873309452011

>  <path>  (257) 
/opt/xchem-fragalysis-2/maxwin/BulkDock/SCRATCH/511020/C18004-P96/C18004-P96.minimised.mol

>  <scratch_subdir>  (257) 
/opt/xchem-fragalysis-2/maxwin/BulkDock/SCRATCH/511020/C18004-P96

>  <fragmenstein_runtime>  (257) 
39.64660859107971

>  <fragmenstein_outcome>  (257) 
too moved

>  <fragmenstein_mode>  (257) 
expansion

>  <fragmenstein_error>  (257) 


$$$$
C18004-P116
     RDKit          3D

 45 46  0  0  0  0  0  0  0  0999 V2000
  -11.0258  -22.0558   28.8306 C   0  0  0  0  0  0  0  0  0  0  0  0
  -10.4700  -20.8654   29.7809 C   0  0  0  0  0  0  0  0  0  0  0  0
  -10.1200  -21.3190   31.8967 C   0  0  0  0  0  0  0  0  0  0  0  0
   -8.5091  -21.3122   33.4201 C   0  0  0  0  0  0  0  0  0  0  0  0
   -8.5268  -20.0259   34.4089 C   0  0  0  0  0  0  0  0  0  0  0  0
   -8.2929  -22.5964   34.7705 N   0  0  0  0  0  0  0  0  0  0  0  0
   -7.1073  -23.7544   35.0257 C   0  0  0  0  0  0  0  0  0  0  0  0
   -6.0916  -23.8810   34.3771 O   0  0  0  0  0  0  0  0  0  0  0  0
   -7.5225  -25.2345   36.5276 C   0  0  0  0  0  0  0  0  0  0  0  0
   -9.2896  -26.0980   37.2950 N   0  0  0  0  0  0  0  0  0  0  0  0
  -10.9996  -26.0885   36.8190 C   0  0  0  0  0  0  0  0  0  0  0  0
  -11.6577  -27.2168   36.0789 C   0  0  0  0  0  0  0  0  0  0  0  0
  -10.6432  -28.2395   35.9127 C   0  0  0  0  0  0  0  0  0  0  0  0
   -9.3531  -27.7680   36.3641 N   0  0  0  0  0  0  0  0  0  0  0  0
   -9.0247  -19.6595   28.8333 N   0  0  0  0  0  0  0  0  0  0  0  0
   -7.6453  -18.7362   29.6269 C   0  0  0  0  0  0  0  0  0  0  0  0
   -7.3746  -18.5838   30.8097 O   0  0  0  0  0  0  0  0  0  0  0  0
   -6.2362  -17.9430   28.4258 C   0  0  0  0  0  0  0  0  0  0  0  0
   -4.2829  -17.3192   28.0223 C   0  0  0  0  0  0  0  0  0  0  0  0
   -3.6567  -16.1629   28.2811 N   0  0  0  0  0  0  0  0  0  0  0  0
   -2.3001  -16.0112   27.8104 C   0  0  0  0  0  0  0  0  0  0  0  0
   -2.0467  -17.1179   27.0918 C   0  0  0  0  0  0  0  0  0  0  0  0
   -3.0775  -17.9450   27.4273 N   0  0  0  0  0  0  0  0  0  0  0  0
  -10.3386  -22.8254   28.4988 H   0  0  0  0  0  0  0  0  0  0  0  0
  -11.4404  -21.6778   27.8920 H   0  0  0  0  0  0  0  0  0  0  0  0
  -11.8804  -22.4852   29.3411 H   0  0  0  0  0  0  0  0  0  0  0  0
  -11.4308  -20.4461   29.6201 H   0  0  0  0  0  0  0  0  0  0  0  0
  -10.3076  -20.2811   32.5334 H   0  0  0  0  0  0  0  0  0  0  0  0
  -10.8707  -20.5088   31.5755 H   0  0  0  0  0  0  0  0  0  0  0  0
   -7.4458  -21.2391   33.0584 H   0  0  0  0  0  0  0  0  0  0  0  0
   -7.6775  -20.1114   35.0986 H   0  0  0  0  0  0  0  0  0  0  0  0
   -8.4017  -19.0723   33.8883 H   0  0  0  0  0  0  0  0  0  0  0  0
   -9.4171  -19.9559   35.0310 H   0  0  0  0  0  0  0  0  0  0  0  0
   -8.9711  -22.6644   35.4966 H   0  0  0  0  0  0  0  0  0  0  0  0
   -7.1680  -25.2039   37.5784 H   0  0  0  0  0  0  0  0  0  0  0  0
   -7.0499  -26.1512   36.0370 H   0  0  0  0  0  0  0  0  0  0  0  0
  -11.3942  -25.1539   36.9053 H   0  0  0  0  0  0  0  0  0  0  0  0
  -12.6853  -27.2555   35.7440 H   0  0  0  0  0  0  0  0  0  0  0  0
  -10.7050  -29.1955   35.4177 H   0  0  0  0  0  0  0  0  0  0  0  0
   -8.9192  -19.6608   27.8167 H   0  0  0  0  0  0  0  0  0  0  0  0
   -6.0445  -18.5602   27.5402 H   0  0  0  0  0  0  0  0  0  0  0  0
   -6.9950  -17.1292   28.3259 H   0  0  0  0  0  0  0  0  0  0  0  0
   -1.7552  -15.0977   28.0024 H   0  0  0  0  0  0  0  0  0  0  0  0
   -1.2438  -17.4390   26.4609 H   0  0  0  0  0  0  0  0  0  0  0  0
   -3.1905  -18.8455   27.0019 H   0  0  0  0  0  0  0  0  0  0  0  0
  1  2  1  0
  2  3  1  0
  3  4  1  0
  4  5  1  0
  4  6  1  0
  6  7  1  0
  7  8  2  0
  7  9  1  0
  9 10  1  0
 10 11  1  0
 11 12  2  0
 12 13  1  0
 13 14  2  0
  2 15  1  0
 15 16  1  0
 16 17  2  0
 16 18  1  0
 18 19  1  0
 19 20  2  0
 20 21  1  0
 21 22  2  0
 22 23  1  0
 14 10  1  0
 23 19  1  0
  1 24  1  0
  1 25  1  0
  1 26  1  0
  2 27  1  0
  3 28  1  0
  3 29  1  0
  4 30  1  0
  5 31  1  0
  5 32  1  0
  5 33  1  0
  6 34  1  0
  9 35  1  0
  9 36  1  0
 11 37  1  0
 12 38  1  0
 13 39  1  0
 15 40  1  0
 18 41  1  0
 18 42  1  0
 21 43  1  0
 22 44  1  0
 23 45  1  0
M  END
>  <Energy>  (258) 
1322.7794012198699

>  <compound_id>  (258) 
18004

>  <target_id>  (258) 
1

>  <reference_id>  (258) 
116

>  <inspiration_ids>  (258) 
[96, 116]

>  <energy_score>  (258) 
1267.6724525114175

>  <distance_score>  (258) 
4.3748990506092325

>  <path>  (258) 
/opt/xchem-fragalysis-2/maxwin/BulkDock/SCRATCH/511020/C18004-P116/C18004-P116.minimised.mol

>  <scratch_subdir>  (258) 
/opt/xchem-fragalysis-2/maxwin/BulkDock/SCRATCH/511020/C18004-P116

>  <fragmenstein_runtime>  (258) 
40.21478486061096

>  <fragmenstein_outcome>  (258) 
too moved

>  <fragmenstein_mode>  (258) 
expansion

>  <fragmenstein_error>  (258) 


$$$$
C18005-P96
     RDKit          3D

 42 43  0  0  0  0  0  0  0  0999 V2000
   -6.3012  -18.0654   20.1485 C   0  0  0  0  0  0  0  0  0  0  0  0
   -6.4341  -19.2283   21.1040 C   0  0  0  0  0  0  0  0  0  0  0  0
   -6.1612  -19.7146   22.8638 C   0  0  0  0  0  0  0  0  0  0  0  0
   -4.7472  -19.8524   24.3730 C   0  0  0  0  0  0  0  0  0  0  0  0
   -4.8756  -19.9752   26.3495 C   0  0  0  0  0  0  0  0  0  0  0  0
   -5.5059  -18.4812   26.4001 C   0  0  0  0  0  0  0  0  0  0  0  0
   -4.8681  -16.9215   26.8621 N   0  0  0  0  0  0  0  0  0  0  0  0
   -3.2886  -16.0876   26.4042 C   0  0  0  0  0  0  0  0  0  0  0  0
   -2.3171  -16.5124   25.7414 O   0  0  0  0  0  0  0  0  0  0  0  0
   -3.2828  -14.7589   26.8020 C   0  0  0  0  0  0  0  0  0  0  0  0
   -2.4587  -14.0668   26.0954 N   0  0  0  0  0  0  0  0  0  0  0  0
   -2.1447  -13.0137   26.7549 C   0  0  0  0  0  0  0  0  0  0  0  0
   -2.7153  -12.9067   27.9978 C   0  0  0  0  0  0  0  0  0  0  0  0
   -3.6658  -14.0508   27.9840 N   0  0  0  0  0  0  0  0  0  0  0  0
   -6.1143  -20.7129   27.3650 N   0  0  0  0  0  0  0  0  0  0  0  0
   -7.0132  -21.6834   27.0979 C   0  0  0  0  0  0  0  0  0  0  0  0
   -7.1411  -22.3411   26.1465 O   0  0  0  0  0  0  0  0  0  0  0  0
   -8.3701  -22.0254   28.2667 C   0  0  0  0  0  0  0  0  0  0  0  0
   -8.7878  -23.3204   28.8768 C   0  0  0  0  0  0  0  0  0  0  0  0
  -10.1005  -23.2136   29.2652 C   0  0  0  0  0  0  0  0  0  0  0  0
  -10.4737  -21.9702   28.8946 N   0  0  0  0  0  0  0  0  0  0  0  0
   -9.4737  -21.2243   28.4191 N   0  0  0  0  0  0  0  0  0  0  0  0
   -5.4184  -18.1387   19.5055 H   0  0  0  0  0  0  0  0  0  0  0  0
   -6.4165  -17.1178   20.6337 H   0  0  0  0  0  0  0  0  0  0  0  0
   -7.0625  -18.1556   19.3767 H   0  0  0  0  0  0  0  0  0  0  0  0
   -5.9320  -19.9886   20.5106 H   0  0  0  0  0  0  0  0  0  0  0  0
   -7.5140  -19.2017   21.0966 H   0  0  0  0  0  0  0  0  0  0  0  0
   -6.6686  -20.6568   22.9140 H   0  0  0  0  0  0  0  0  0  0  0  0
   -6.8209  -18.8391   23.0665 H   0  0  0  0  0  0  0  0  0  0  0  0
   -4.4787  -18.8008   24.4716 H   0  0  0  0  0  0  0  0  0  0  0  0
   -3.7421  -19.8856   23.9932 H   0  0  0  0  0  0  0  0  0  0  0  0
   -4.3250  -20.7374   26.8748 H   0  0  0  0  0  0  0  0  0  0  0  0
   -5.6694  -18.1468   25.4359 H   0  0  0  0  0  0  0  0  0  0  0  0
   -6.5256  -18.6149   26.7510 H   0  0  0  0  0  0  0  0  0  0  0  0
   -5.4155  -16.3386   27.4760 H   0  0  0  0  0  0  0  0  0  0  0  0
   -1.2560  -12.6465   26.4027 H   0  0  0  0  0  0  0  0  0  0  0  0
   -1.9695  -12.9184   28.7919 H   0  0  0  0  0  0  0  0  0  0  0  0
   -4.3248  -14.3206   28.6901 H   0  0  0  0  0  0  0  0  0  0  0  0
   -6.3420  -20.3035   28.2321 H   0  0  0  0  0  0  0  0  0  0  0  0
   -8.2266  -24.2402   28.9747 H   0  0  0  0  0  0  0  0  0  0  0  0
  -10.7866  -23.9137   29.7187 H   0  0  0  0  0  0  0  0  0  0  0  0
  -11.3855  -21.5331   28.9728 H   0  0  0  0  0  0  0  0  0  0  0  0
  1  2  1  0
  2  3  1  0
  3  4  1  0
  4  5  1  0
  5  6  1  0
  6  7  1  0
  7  8  1  0
  8  9  2  0
  8 10  1  0
 10 11  2  0
 11 12  1  0
 12 13  2  0
 13 14  1  0
  5 15  1  0
 15 16  1  0
 16 17  2  0
 16 18  1  0
 18 19  1  0
 19 20  2  0
 20 21  1  0
 21 22  1  0
 14 10  1  0
 22 18  2  0
  1 23  1  0
  1 24  1  0
  1 25  1  0
  2 26  1  0
  2 27  1  0
  3 28  1  0
  3 29  1  0
  4 30  1  0
  4 31  1  0
  5 32  1  0
  6 33  1  0
  6 34  1  0
  7 35  1  0
 12 36  1  0
 13 37  1  0
 14 38  1  0
 15 39  1  0
 19 40  1  0
 20 41  1  0
 21 42  1  0
M  END
>  <Energy>  (259) 
575.64272236492616

>  <compound_id>  (259) 
18005

>  <target_id>  (259) 
1

>  <reference_id>  (259) 
96

>  <inspiration_ids>  (259) 
[96, 116]

>  <energy_score>  (259) 
499.4433279704099

>  <distance_score>  (259) 
2.552379395155332

>  <path>  (259) 
/opt/xchem-fragalysis-2/maxwin/BulkDock/SCRATCH/511020/C18005-P96/C18005-P96.minimised.mol

>  <scratch_subdir>  (259) 
/opt/xchem-fragalysis-2/maxwin/BulkDock/SCRATCH/511020/C18005-P96

>  <fragmenstein_runtime>  (259) 
16.451417922973633

>  <fragmenstein_outcome>  (259) 
too moved

>  <fragmenstein_mode>  (259) 
expansion

>  <fragmenstein_error>  (259) 


$$$$
C18005-P116
     RDKit          3D

 42 43  0  0  0  0  0  0  0  0999 V2000
   -6.1134  -18.8737   20.7832 C   0  0  0  0  0  0  0  0  0  0  0  0
   -6.7735  -18.8441   22.1590 C   0  0  0  0  0  0  0  0  0  0  0  0
   -6.1899  -18.9896   23.7474 C   0  0  0  0  0  0  0  0  0  0  0  0
   -5.2156  -20.4786   25.0000 C   0  0  0  0  0  0  0  0  0  0  0  0
   -5.5424  -21.6332   26.4521 C   0  0  0  0  0  0  0  0  0  0  0  0
   -6.0788  -20.0086   26.9503 C   0  0  0  0  0  0  0  0  0  0  0  0
   -5.1436  -18.6295   27.6396 N   0  0  0  0  0  0  0  0  0  0  0  0
   -3.3084  -18.1317   27.4435 C   0  0  0  0  0  0  0  0  0  0  0  0
   -2.5153  -18.8438   26.8464 O   0  0  0  0  0  0  0  0  0  0  0  0
   -2.6033  -16.7777   27.8300 C   0  0  0  0  0  0  0  0  0  0  0  0
   -2.9111  -15.5794   28.3066 N   0  0  0  0  0  0  0  0  0  0  0  0
   -1.8417  -14.7611   28.5744 C   0  0  0  0  0  0  0  0  0  0  0  0
   -0.7553  -15.4899   28.3541 C   0  0  0  0  0  0  0  0  0  0  0  0
   -1.2599  -16.5847   27.6175 N   0  0  0  0  0  0  0  0  0  0  0  0
   -7.0310  -22.6782   26.3829 N   0  0  0  0  0  0  0  0  0  0  0  0
   -7.9799  -23.0301   27.3934 C   0  0  0  0  0  0  0  0  0  0  0  0
   -7.9537  -22.7805   28.5056 O   0  0  0  0  0  0  0  0  0  0  0  0
   -9.4052  -23.8562   27.0362 C   0  0  0  0  0  0  0  0  0  0  0  0
  -10.6323  -23.4959   27.7419 C   0  0  0  0  0  0  0  0  0  0  0  0
  -11.6592  -24.0213   27.0137 C   0  0  0  0  0  0  0  0  0  0  0  0
  -11.0566  -24.9039   26.2038 N   0  0  0  0  0  0  0  0  0  0  0  0
   -9.7675  -24.6336   25.9935 N   0  0  0  0  0  0  0  0  0  0  0  0
   -6.8837  -18.9428   20.0120 H   0  0  0  0  0  0  0  0  0  0  0  0
   -5.4546  -19.7229   20.5944 H   0  0  0  0  0  0  0  0  0  0  0  0
   -5.5999  -17.9406   20.5746 H   0  0  0  0  0  0  0  0  0  0  0  0
   -7.6740  -19.4538   22.1262 H   0  0  0  0  0  0  0  0  0  0  0  0
   -7.2306  -17.8452   22.1555 H   0  0  0  0  0  0  0  0  0  0  0  0
   -6.2767  -17.9823   23.9953 H   0  0  0  0  0  0  0  0  0  0  0  0
   -7.2755  -19.0529   23.8572 H   0  0  0  0  0  0  0  0  0  0  0  0
   -4.2836  -20.0081   25.1789 H   0  0  0  0  0  0  0  0  0  0  0  0
   -5.0995  -21.3194   24.3493 H   0  0  0  0  0  0  0  0  0  0  0  0
   -5.0464  -22.2765   27.1392 H   0  0  0  0  0  0  0  0  0  0  0  0
   -7.1650  -20.0458   26.9524 H   0  0  0  0  0  0  0  0  0  0  0  0
   -6.1155  -19.4386   26.0806 H   0  0  0  0  0  0  0  0  0  0  0  0
   -5.6216  -17.9139   28.0641 H   0  0  0  0  0  0  0  0  0  0  0  0
   -1.9063  -13.7430   28.9299 H   0  0  0  0  0  0  0  0  0  0  0  0
    0.2959  -15.2530   28.4478 H   0  0  0  0  0  0  0  0  0  0  0  0
   -0.6680  -17.2709   27.1877 H   0  0  0  0  0  0  0  0  0  0  0  0
   -7.3002  -23.1236   25.5151 H   0  0  0  0  0  0  0  0  0  0  0  0
  -10.7521  -22.7643   28.5253 H   0  0  0  0  0  0  0  0  0  0  0  0
  -12.7262  -23.9133   27.0806 H   0  0  0  0  0  0  0  0  0  0  0  0
  -11.4905  -25.6330   25.6577 H   0  0  0  0  0  0  0  0  0  0  0  0
  1  2  1  0
  2  3  1  0
  3  4  1  0
  4  5  1  0
  5  6  1  0
  6  7  1  0
  7  8  1  0
  8  9  2  0
  8 10  1  0
 10 11  2  0
 11 12  1  0
 12 13  2  0
 13 14  1  0
  5 15  1  0
 15 16  1  0
 16 17  2  0
 16 18  1  0
 18 19  1  0
 19 20  2  0
 20 21  1  0
 21 22  1  0
 14 10  1  0
 22 18  2  0
  1 23  1  0
  1 24  1  0
  1 25  1  0
  2 26  1  0
  2 27  1  0
  3 28  1  0
  3 29  1  0
  4 30  1  0
  4 31  1  0
  5 32  1  0
  6 33  1  0
  6 34  1  0
  7 35  1  0
 12 36  1  0
 13 37  1  0
 14 38  1  0
 15 39  1  0
 19 40  1  0
 20 41  1  0
 21 42  1  0
M  END
>  <Energy>  (260) 
590.09020368623203

>  <compound_id>  (260) 
18005

>  <target_id>  (260) 
1

>  <reference_id>  (260) 
116

>  <inspiration_ids>  (260) 
[96, 116]

>  <energy_score>  (260) 
513.8908092917309

>  <distance_score>  (260) 
3.269702865795684

>  <path>  (260) 
/opt/xchem-fragalysis-2/maxwin/BulkDock/SCRATCH/511020/C18005-P116/C18005-P116.minimised.mol

>  <scratch_subdir>  (260) 
/opt/xchem-fragalysis-2/maxwin/BulkDock/SCRATCH/511020/C18005-P116

>  <fragmenstein_runtime>  (260) 
16.631328344345093

>  <fragmenstein_outcome>  (260) 
too moved

>  <fragmenstein_mode>  (260) 
expansion

>  <fragmenstein_error>  (260) 


$$$$
C18006-P96
     RDKit          3D

 45 46  0  0  0  0  0  0  0  0999 V2000
   -8.6526  -13.2535   26.4978 C   0  0  0  0  0  0  0  0  0  0  0  0
   -8.9805  -14.6119   25.9157 C   0  0  0  0  0  0  0  0  0  0  0  0
   -9.0999  -16.0794   26.3126 C   0  0  0  0  0  0  0  0  0  0  0  0
   -8.1416  -17.2586   27.4804 C   0  0  0  0  0  0  0  0  0  0  0  0
   -7.0198  -18.9753   27.1967 C   0  0  0  0  0  0  0  0  0  0  0  0
   -5.5509  -18.3765   26.2450 C   0  0  0  0  0  0  0  0  0  0  0  0
   -4.9185  -16.7905   26.8482 N   0  0  0  0  0  0  0  0  0  0  0  0
   -3.3902  -15.8271   26.3789 C   0  0  0  0  0  0  0  0  0  0  0  0
   -2.4549  -16.1246   25.6178 O   0  0  0  0  0  0  0  0  0  0  0  0
   -3.4183  -14.5257   26.9467 C   0  0  0  0  0  0  0  0  0  0  0  0
   -3.9731  -14.3478   28.1537 N   0  0  0  0  0  0  0  0  0  0  0  0
   -3.2518  -13.4003   28.7245 C   0  0  0  0  0  0  0  0  0  0  0  0
   -2.3966  -12.7665   27.8326 C   0  0  0  0  0  0  0  0  0  0  0  0
   -2.5503  -13.4242   26.6224 N   0  0  0  0  0  0  0  0  0  0  0  0
   -7.4887  -20.6811   27.6893 N   0  0  0  0  0  0  0  0  0  0  0  0
   -8.9162  -21.2706   28.3644 C   0  0  0  0  0  0  0  0  0  0  0  0
   -9.9043  -20.6616   28.7411 O   0  0  0  0  0  0  0  0  0  0  0  0
   -9.1336  -22.7574   28.4555 C   0  0  0  0  0  0  0  0  0  0  0  0
   -8.9810  -23.6182   29.5854 C   0  0  0  0  0  0  0  0  0  0  0  0
   -9.7232  -24.7406   29.3044 C   0  0  0  0  0  0  0  0  0  0  0  0
  -10.2916  -24.5074   28.0933 N   0  0  0  0  0  0  0  0  0  0  0  0
  -11.2954  -25.3014   27.4300 C   0  0  0  0  0  0  0  0  0  0  0  0
   -9.8859  -23.3693   27.5204 N   0  0  0  0  0  0  0  0  0  0  0  0
   -8.0839  -12.6323   25.8010 H   0  0  0  0  0  0  0  0  0  0  0  0
   -9.5721  -12.7159   26.6844 H   0  0  0  0  0  0  0  0  0  0  0  0
   -8.0268  -13.2503   27.3536 H   0  0  0  0  0  0  0  0  0  0  0  0
   -8.6590  -14.5819   24.8717 H   0  0  0  0  0  0  0  0  0  0  0  0
  -10.0598  -14.4920   25.9474 H   0  0  0  0  0  0  0  0  0  0  0  0
  -10.1527  -16.2612   26.5809 H   0  0  0  0  0  0  0  0  0  0  0  0
   -9.5398  -16.3840   25.3715 H   0  0  0  0  0  0  0  0  0  0  0  0
   -8.9603  -17.7802   27.7833 H   0  0  0  0  0  0  0  0  0  0  0  0
   -7.8771  -16.6780   28.3070 H   0  0  0  0  0  0  0  0  0  0  0  0
   -6.1506  -19.4953   27.5754 H   0  0  0  0  0  0  0  0  0  0  0  0
   -4.9139  -19.2483   25.9432 H   0  0  0  0  0  0  0  0  0  0  0  0
   -5.7368  -18.0637   25.2732 H   0  0  0  0  0  0  0  0  0  0  0  0
   -5.4576  -16.2969   27.5713 H   0  0  0  0  0  0  0  0  0  0  0  0
   -2.9092  -13.5634   29.7510 H   0  0  0  0  0  0  0  0  0  0  0  0
   -1.4354  -12.5283   28.2199 H   0  0  0  0  0  0  0  0  0  0  0  0
   -2.1346  -13.2291   25.7406 H   0  0  0  0  0  0  0  0  0  0  0  0
   -6.9004  -21.4541   27.4097 H   0  0  0  0  0  0  0  0  0  0  0  0
   -8.4936  -23.4116   30.5266 H   0  0  0  0  0  0  0  0  0  0  0  0
   -9.9472  -25.6190   29.8917 H   0  0  0  0  0  0  0  0  0  0  0  0
  -10.9954  -25.4375   26.3888 H   0  0  0  0  0  0  0  0  0  0  0  0
  -11.3812  -26.2671   27.9329 H   0  0  0  0  0  0  0  0  0  0  0  0
  -12.2461  -24.7648   27.4845 H   0  0  0  0  0  0  0  0  0  0  0  0
  1  2  1  0
  2  3  1  0
  3  4  1  0
  4  5  1  0
  5  6  1  0
  6  7  1  0
  7  8  1  0
  8  9  2  0
  8 10  1  0
 10 11  2  0
 11 12  1  0
 12 13  2  0
 13 14  1  0
  5 15  1  0
 15 16  1  0
 16 17  2  0
 16 18  1  0
 18 19  1  0
 19 20  2  0
 20 21  1  0
 21 22  1  0
 21 23  1  0
 14 10  1  0
 23 18  2  0
  1 24  1  0
  1 25  1  0
  1 26  1  0
  2 27  1  0
  2 28  1  0
  3 29  1  0
  3 30  1  0
  4 31  1  0
  4 32  1  0
  5 33  1  0
  6 34  1  0
  6 35  1  0
  7 36  1  0
 12 37  1  0
 13 38  1  0
 14 39  1  0
 15 40  1  0
 19 41  1  0
 20 42  1  0
 22 43  1  0
 22 44  1  0
 22 45  1  0
M  END
>  <Energy>  (261) 
553.83310115961058

>  <compound_id>  (261) 
18006

>  <target_id>  (261) 
1

>  <reference_id>  (261) 
96

>  <inspiration_ids>  (261) 
[96, 116]

>  <energy_score>  (261) 
471.67227028585546

>  <distance_score>  (261) 
2.7389730081135055

>  <path>  (261) 
/opt/xchem-fragalysis-2/maxwin/BulkDock/SCRATCH/511020/C18006-P96/C18006-P96.minimised.mol

>  <scratch_subdir>  (261) 
/opt/xchem-fragalysis-2/maxwin/BulkDock/SCRATCH/511020/C18006-P96

>  <fragmenstein_runtime>  (261) 
18.28184223175049

>  <fragmenstein_outcome>  (261) 
too moved

>  <fragmenstein_mode>  (261) 
expansion

>  <fragmenstein_error>  (261) 


$$$$
C18006-P116
     RDKit          3D

 45 46  0  0  0  0  0  0  0  0999 V2000
   -8.5917  -14.4043   27.4414 C   0  0  0  0  0  0  0  0  0  0  0  0
   -8.9531  -15.6244   26.6224 C   0  0  0  0  0  0  0  0  0  0  0  0
   -9.3112  -17.0611   26.9374 C   0  0  0  0  0  0  0  0  0  0  0  0
   -8.3393  -18.4003   27.7650 C   0  0  0  0  0  0  0  0  0  0  0  0
   -6.8909  -19.7380   26.8451 C   0  0  0  0  0  0  0  0  0  0  0  0
   -5.4595  -18.6246   27.7602 C   0  0  0  0  0  0  0  0  0  0  0  0
   -4.1016  -17.3008   27.8961 N   0  0  0  0  0  0  0  0  0  0  0  0
   -2.6840  -17.2341   27.3043 C   0  0  0  0  0  0  0  0  0  0  0  0
   -2.0973  -18.0109   26.5926 O   0  0  0  0  0  0  0  0  0  0  0  0
   -1.9675  -15.7932   27.7701 C   0  0  0  0  0  0  0  0  0  0  0  0
   -1.1491  -15.5951   28.8056 N   0  0  0  0  0  0  0  0  0  0  0  0
   -0.7426  -14.2900   28.8863 C   0  0  0  0  0  0  0  0  0  0  0  0
   -1.3331  -13.5763   27.8931 C   0  0  0  0  0  0  0  0  0  0  0  0
   -2.0650  -14.5152   27.1959 N   0  0  0  0  0  0  0  0  0  0  0  0
   -7.8045  -21.2165   27.3188 N   0  0  0  0  0  0  0  0  0  0  0  0
   -7.7030  -22.5344   26.8868 C   0  0  0  0  0  0  0  0  0  0  0  0
   -6.9342  -23.0341   26.1612 O   0  0  0  0  0  0  0  0  0  0  0  0
   -9.0642  -23.4695   27.4942 C   0  0  0  0  0  0  0  0  0  0  0  0
   -9.9521  -24.3576   26.7183 C   0  0  0  0  0  0  0  0  0  0  0  0
  -11.2624  -24.0738   27.0619 C   0  0  0  0  0  0  0  0  0  0  0  0
  -11.1605  -23.0947   27.9776 N   0  0  0  0  0  0  0  0  0  0  0  0
  -12.0858  -22.1439   28.4995 C   0  0  0  0  0  0  0  0  0  0  0  0
   -9.9335  -22.7663   28.2386 N   0  0  0  0  0  0  0  0  0  0  0  0
   -7.8878  -13.7531   26.9222 H   0  0  0  0  0  0  0  0  0  0  0  0
   -9.4950  -13.8317   27.6265 H   0  0  0  0  0  0  0  0  0  0  0  0
   -8.0811  -14.5925   28.3599 H   0  0  0  0  0  0  0  0  0  0  0  0
   -8.4785  -15.5391   25.6463 H   0  0  0  0  0  0  0  0  0  0  0  0
  -10.0013  -15.3961   26.4868 H   0  0  0  0  0  0  0  0  0  0  0  0
  -10.3739  -17.1144   27.1441 H   0  0  0  0  0  0  0  0  0  0  0  0
   -9.7049  -17.2694   25.9601 H   0  0  0  0  0  0  0  0  0  0  0  0
   -8.9704  -19.0198   28.2915 H   0  0  0  0  0  0  0  0  0  0  0  0
   -7.7958  -17.6663   28.2935 H   0  0  0  0  0  0  0  0  0  0  0  0
   -6.0905  -20.4243   27.0965 H   0  0  0  0  0  0  0  0  0  0  0  0
   -5.7114  -17.9794   27.0999 H   0  0  0  0  0  0  0  0  0  0  0  0
   -6.1349  -18.1010   28.5087 H   0  0  0  0  0  0  0  0  0  0  0  0
   -4.2409  -16.5232   28.5116 H   0  0  0  0  0  0  0  0  0  0  0  0
   -0.0473  -13.9555   29.6445 H   0  0  0  0  0  0  0  0  0  0  0  0
   -1.2703  -12.5455   27.5723 H   0  0  0  0  0  0  0  0  0  0  0  0
   -2.4962  -14.3126   26.3131 H   0  0  0  0  0  0  0  0  0  0  0  0
   -8.5818  -21.1263   27.8318 H   0  0  0  0  0  0  0  0  0  0  0  0
   -9.6962  -24.8671   25.8078 H   0  0  0  0  0  0  0  0  0  0  0  0
  -12.2065  -24.3820   26.6426 H   0  0  0  0  0  0  0  0  0  0  0  0
  -12.7789  -21.8899   27.7144 H   0  0  0  0  0  0  0  0  0  0  0  0
  -12.4984  -22.4771   29.4393 H   0  0  0  0  0  0  0  0  0  0  0  0
  -11.5558  -21.2627   28.8335 H   0  0  0  0  0  0  0  0  0  0  0  0
  1  2  1  0
  2  3  1  0
  3  4  1  0
  4  5  1  0
  5  6  1  0
  6  7  1  0
  7  8  1  0
  8  9  2  0
  8 10  1  0
 10 11  2  0
 11 12  1  0
 12 13  2  0
 13 14  1  0
  5 15  1  0
 15 16  1  0
 16 17  2  0
 16 18  1  0
 18 19  1  0
 19 20  2  0
 20 21  1  0
 21 22  1  0
 21 23  1  0
 14 10  1  0
 23 18  2  0
  1 24  1  0
  1 25  1  0
  1 26  1  0
  2 27  1  0
  2 28  1  0
  3 29  1  0
  3 30  1  0
  4 31  1  0
  4 32  1  0
  5 33  1  0
  6 34  1  0
  6 35  1  0
  7 36  1  0
 12 37  1  0
 13 38  1  0
 14 39  1  0
 15 40  1  0
 19 41  1  0
 20 42  1  0
 22 43  1  0
 22 44  1  0
 22 45  1  0
M  END
>  <Energy>  (262) 
596.34744586711668

>  <compound_id>  (262) 
18006

>  <target_id>  (262) 
1

>  <reference_id>  (262) 
116

>  <inspiration_ids>  (262) 
[96, 116]

>  <energy_score>  (262) 
514.1866149933727

>  <distance_score>  (262) 
2.638429728673205

>  <path>  (262) 
/opt/xchem-fragalysis-2/maxwin/BulkDock/SCRATCH/511020/C18006-P116/C18006-P116.minimised.mol

>  <scratch_subdir>  (262) 
/opt/xchem-fragalysis-2/maxwin/BulkDock/SCRATCH/511020/C18006-P116

>  <fragmenstein_runtime>  (262) 
18.986709356307983

>  <fragmenstein_outcome>  (262) 
too moved

>  <fragmenstein_mode>  (262) 
expansion

>  <fragmenstein_error>  (262) 


$$$$
C18007-P96
     RDKit          3D

 42 43  0  0  0  0  0  0  0  0999 V2000
   -9.3357  -23.1990   27.3071 C   0  0  0  0  0  0  0  0  0  0  0  0
   -8.9376  -21.9121   28.4995 C   0  0  0  0  0  0  0  0  0  0  0  0
   -8.5522  -22.7223   29.4147 N   0  0  0  0  0  0  0  0  0  0  0  0
   -9.6190  -23.6706   30.2485 C   0  0  0  0  0  0  0  0  0  0  0  0
  -10.7753  -23.7141   30.2690 O   0  0  0  0  0  0  0  0  0  0  0  0
   -8.9258  -24.5263   31.1943 C   0  0  0  0  0  0  0  0  0  0  0  0
   -9.4713  -25.6535   31.8465 C   0  0  0  0  0  0  0  0  0  0  0  0
   -8.7388  -25.7938   32.9982 C   0  0  0  0  0  0  0  0  0  0  0  0
   -7.9124  -24.7225   33.0464 N   0  0  0  0  0  0  0  0  0  0  0  0
   -7.9628  -23.9653   31.9523 N   0  0  0  0  0  0  0  0  0  0  0  0
   -8.6940  -21.0980   28.1993 C   0  0  0  0  0  0  0  0  0  0  0  0
  -10.6012  -20.8113   27.7263 C   0  0  0  0  0  0  0  0  0  0  0  0
   -7.0501  -19.8443   27.4637 C   0  0  0  0  0  0  0  0  0  0  0  0
   -5.6543  -18.5588   26.5592 N   0  0  0  0  0  0  0  0  0  0  0  0
   -5.0675  -16.7311   27.0024 C   0  0  0  0  0  0  0  0  0  0  0  0
   -5.6255  -15.9324   28.0031 O   0  0  0  0  0  0  0  0  0  0  0  0
   -3.4288  -15.7627   26.2280 C   0  0  0  0  0  0  0  0  0  0  0  0
   -3.3339  -14.4759   26.8753 C   0  0  0  0  0  0  0  0  0  0  0  0
   -2.4823  -13.4528   26.5692 N   0  0  0  0  0  0  0  0  0  0  0  0
   -2.3799  -12.7833   27.7939 C   0  0  0  0  0  0  0  0  0  0  0  0
   -3.1830  -13.3688   28.7648 C   0  0  0  0  0  0  0  0  0  0  0  0
   -3.9064  -14.2797   28.1495 N   0  0  0  0  0  0  0  0  0  0  0  0
   -8.5821  -23.0965   26.5821 H   0  0  0  0  0  0  0  0  0  0  0  0
  -10.2713  -23.0816   26.7430 H   0  0  0  0  0  0  0  0  0  0  0  0
   -9.3275  -24.2045   27.7539 H   0  0  0  0  0  0  0  0  0  0  0  0
   -9.9831  -22.4748   28.5374 H   0  0  0  0  0  0  0  0  0  0  0  0
   -9.8933  -21.6343   29.3918 H   0  0  0  0  0  0  0  0  0  0  0  0
  -10.3447  -26.2161   31.5514 H   0  0  0  0  0  0  0  0  0  0  0  0
   -8.7708  -26.5021   33.8070 H   0  0  0  0  0  0  0  0  0  0  0  0
   -7.2890  -24.4427   33.7957 H   0  0  0  0  0  0  0  0  0  0  0  0
   -9.2675  -20.2255   28.9190 H   0  0  0  0  0  0  0  0  0  0  0  0
  -11.0994  -20.2895   28.5630 H   0  0  0  0  0  0  0  0  0  0  0  0
  -11.2286  -21.7141   27.6586 H   0  0  0  0  0  0  0  0  0  0  0  0
  -10.7646  -20.3776   26.7734 H   0  0  0  0  0  0  0  0  0  0  0  0
   -7.3879  -18.8715   27.6606 H   0  0  0  0  0  0  0  0  0  0  0  0
   -6.2599  -20.5448   27.7544 H   0  0  0  0  0  0  0  0  0  0  0  0
   -5.1433  -18.8784   25.7461 H   0  0  0  0  0  0  0  0  0  0  0  0
   -2.5399  -16.3774   26.1850 H   0  0  0  0  0  0  0  0  0  0  0  0
   -3.2427  -15.4437   25.1793 H   0  0  0  0  0  0  0  0  0  0  0  0
   -1.4395  -12.5152   28.2177 H   0  0  0  0  0  0  0  0  0  0  0  0
   -2.8621  -13.5611   29.7906 H   0  0  0  0  0  0  0  0  0  0  0  0
   -4.7906  -14.6731   28.4866 H   0  0  0  0  0  0  0  0  0  0  0  0
  1  2  1  0
  2  3  1  0
  3  4  1  0
  4  5  2  0
  4  6  1  0
  6  7  1  0
  7  8  2  0
  8  9  1  0
  9 10  1  0
  3 11  1  0
 11 12  1  0
 11 13  1  0
 13 14  1  0
 14 15  1  0
 15 16  2  0
 15 17  1  0
 17 18  1  0
 18 19  2  0
 19 20  1  0
 20 21  2  0
 21 22  1  0
 10  6  2  0
 22 18  1  0
  1 23  1  0
  1 24  1  0
  1 25  1  0
  2 26  1  0
  2 27  1  0
  7 28  1  0
  8 29  1  0
  9 30  1  0
 11 31  1  0
 12 32  1  0
 12 33  1  0
 12 34  1  0
 13 35  1  0
 13 36  1  0
 14 37  1  0
 17 38  1  0
 17 39  1  0
 20 40  1  0
 21 41  1  0
 22 42  1  0
M  END
>  <Energy>  (263) 
1533.9135319685154

>  <compound_id>  (263) 
18007

>  <target_id>  (263) 
1

>  <reference_id>  (263) 
96

>  <inspiration_ids>  (263) 
[96, 116]

>  <energy_score>  (263) 
1428.9855943542734

>  <distance_score>  (263) 
3.5336373446681932

>  <path>  (263) 
/opt/xchem-fragalysis-2/maxwin/BulkDock/SCRATCH/511020/C18007-P96/C18007-P96.minimised.mol

>  <scratch_subdir>  (263) 
/opt/xchem-fragalysis-2/maxwin/BulkDock/SCRATCH/511020/C18007-P96

>  <fragmenstein_runtime>  (263) 
23.580793619155884

>  <fragmenstein_outcome>  (263) 
too moved

>  <fragmenstein_mode>  (263) 
expansion

>  <fragmenstein_error>  (263) 


$$$$
C18007-P116
     RDKit          3D

 42 43  0  0  0  0  0  0  0  0999 V2000
  -10.1928  -24.3239   25.9988 C   0  0  0  0  0  0  0  0  0  0  0  0
   -8.8336  -23.5044   26.9693 C   0  0  0  0  0  0  0  0  0  0  0  0
   -9.9913  -22.4521   28.0094 N   0  0  0  0  0  0  0  0  0  0  0  0
  -11.5097  -22.9056   28.1311 C   0  0  0  0  0  0  0  0  0  0  0  0
  -12.0822  -23.8036   27.7832 O   0  0  0  0  0  0  0  0  0  0  0  0
  -12.1012  -21.8627   28.9663 C   0  0  0  0  0  0  0  0  0  0  0  0
  -12.7810  -22.1849   30.0907 C   0  0  0  0  0  0  0  0  0  0  0  0
  -11.7585  -22.2602   30.9714 C   0  0  0  0  0  0  0  0  0  0  0  0
  -11.2604  -21.1160   30.6743 N   0  0  0  0  0  0  0  0  0  0  0  0
  -11.5094  -20.7837   29.4557 N   0  0  0  0  0  0  0  0  0  0  0  0
   -8.5687  -23.0083   27.4834 C   0  0  0  0  0  0  0  0  0  0  0  0
   -7.7013  -23.4006   28.5940 C   0  0  0  0  0  0  0  0  0  0  0  0
   -7.0614  -21.6425   27.3278 C   0  0  0  0  0  0  0  0  0  0  0  0
   -5.7990  -20.1755   26.8902 N   0  0  0  0  0  0  0  0  0  0  0  0
   -5.5126  -18.4912   27.7108 C   0  0  0  0  0  0  0  0  0  0  0  0
   -6.2376  -17.9989   28.6334 O   0  0  0  0  0  0  0  0  0  0  0  0
   -3.8333  -17.3007   27.4345 C   0  0  0  0  0  0  0  0  0  0  0  0
   -2.4847  -15.9156   27.7567 C   0  0  0  0  0  0  0  0  0  0  0  0
   -2.2988  -14.9161   26.8460 N   0  0  0  0  0  0  0  0  0  0  0  0
   -1.6544  -13.7868   27.3507 C   0  0  0  0  0  0  0  0  0  0  0  0
   -1.2017  -14.0971   28.5799 C   0  0  0  0  0  0  0  0  0  0  0  0
   -1.7484  -15.3340   28.8381 N   0  0  0  0  0  0  0  0  0  0  0  0
   -9.6843  -24.7391   25.1587 H   0  0  0  0  0  0  0  0  0  0  0  0
  -10.6586  -25.1669   26.5345 H   0  0  0  0  0  0  0  0  0  0  0  0
  -10.9982  -23.6644   25.6842 H   0  0  0  0  0  0  0  0  0  0  0  0
   -7.9863  -23.5550   26.0048 H   0  0  0  0  0  0  0  0  0  0  0  0
   -9.2001  -24.5916   27.3630 H   0  0  0  0  0  0  0  0  0  0  0  0
  -13.4248  -22.9937   30.2712 H   0  0  0  0  0  0  0  0  0  0  0  0
  -11.4890  -22.8724   31.8099 H   0  0  0  0  0  0  0  0  0  0  0  0
  -10.8337  -20.4439   31.2940 H   0  0  0  0  0  0  0  0  0  0  0  0
   -8.5578  -21.8054   27.6994 H   0  0  0  0  0  0  0  0  0  0  0  0
   -7.7103  -22.4845   28.8695 H   0  0  0  0  0  0  0  0  0  0  0  0
   -8.4910  -24.1562   28.7826 H   0  0  0  0  0  0  0  0  0  0  0  0
   -7.3443  -23.6293   29.5342 H   0  0  0  0  0  0  0  0  0  0  0  0
   -6.5491  -22.3861   26.6328 H   0  0  0  0  0  0  0  0  0  0  0  0
   -6.2732  -22.0484   27.9929 H   0  0  0  0  0  0  0  0  0  0  0  0
   -5.0996  -20.3024   26.0681 H   0  0  0  0  0  0  0  0  0  0  0  0
   -4.1615  -16.8437   28.3587 H   0  0  0  0  0  0  0  0  0  0  0  0
   -3.0235  -18.0385   27.4959 H   0  0  0  0  0  0  0  0  0  0  0  0
   -1.5194  -12.8922   26.7553 H   0  0  0  0  0  0  0  0  0  0  0  0
   -0.6168  -13.5584   29.3104 H   0  0  0  0  0  0  0  0  0  0  0  0
   -1.6553  -15.6199   29.7887 H   0  0  0  0  0  0  0  0  0  0  0  0
  1  2  1  0
  2  3  1  0
  3  4  1  0
  4  5  2  0
  4  6  1  0
  6  7  1  0
  7  8  2  0
  8  9  1  0
  9 10  1  0
  3 11  1  0
 11 12  1  0
 11 13  1  0
 13 14  1  0
 14 15  1  0
 15 16  2  0
 15 17  1  0
 17 18  1  0
 18 19  2  0
 19 20  1  0
 20 21  2  0
 21 22  1  0
 10  6  2  0
 22 18  1  0
  1 23  1  0
  1 24  1  0
  1 25  1  0
  2 26  1  0
  2 27  1  0
  7 28  1  0
  8 29  1  0
  9 30  1  0
 11 31  1  0
 12 32  1  0
 12 33  1  0
 12 34  1  0
 13 35  1  0
 13 36  1  0
 14 37  1  0
 17 38  1  0
 17 39  1  0
 20 40  1  0
 21 41  1  0
 22 42  1  0
M  END
>  <Energy>  (264) 
1531.8887541001345

>  <compound_id>  (264) 
18007

>  <target_id>  (264) 
1

>  <reference_id>  (264) 
116

>  <inspiration_ids>  (264) 
[96, 116]

>  <energy_score>  (264) 
1426.9608164858964

>  <distance_score>  (264) 
2.5294649391888124

>  <path>  (264) 
/opt/xchem-fragalysis-2/maxwin/BulkDock/SCRATCH/511020/C18007-P116/C18007-P116.minimised.mol

>  <scratch_subdir>  (264) 
/opt/xchem-fragalysis-2/maxwin/BulkDock/SCRATCH/511020/C18007-P116

>  <fragmenstein_runtime>  (264) 
18.67163920402527

>  <fragmenstein_outcome>  (264) 
too moved

>  <fragmenstein_mode>  (264) 
expansion

>  <fragmenstein_error>  (264) 


$$$$
C18008-P96
     RDKit          3D

 45 46  0  0  0  0  0  0  0  0999 V2000
  -10.3070  -21.4734   28.3829 C   0  0  0  0  0  0  0  0  0  0  0  0
   -9.0101  -22.3127   28.1707 C   0  0  0  0  0  0  0  0  0  0  0  0
   -8.8352  -23.2446   27.0861 N   0  0  0  0  0  0  0  0  0  0  0  0
  -10.1423  -23.4994   26.4319 C   0  0  0  0  0  0  0  0  0  0  0  0
  -10.6706  -22.9527   25.4994 O   0  0  0  0  0  0  0  0  0  0  0  0
  -10.9364  -24.5486   27.1434 C   0  0  0  0  0  0  0  0  0  0  0  0
  -12.3139  -24.8155   26.8995 C   0  0  0  0  0  0  0  0  0  0  0  0
  -12.7124  -25.6731   27.8920 C   0  0  0  0  0  0  0  0  0  0  0  0
  -11.6111  -25.8750   28.6619 N   0  0  0  0  0  0  0  0  0  0  0  0
  -11.5616  -26.6397   29.8832 C   0  0  0  0  0  0  0  0  0  0  0  0
  -10.5057  -25.2639   28.2039 N   0  0  0  0  0  0  0  0  0  0  0  0
   -7.3844  -22.0265   26.5998 C   0  0  0  0  0  0  0  0  0  0  0  0
   -6.9200  -22.6518   24.8662 C   0  0  0  0  0  0  0  0  0  0  0  0
   -7.0265  -20.7519   27.4305 C   0  0  0  0  0  0  0  0  0  0  0  0
   -6.6459  -19.2371   27.2678 N   0  0  0  0  0  0  0  0  0  0  0  0
   -5.5326  -18.5377   26.3669 C   0  0  0  0  0  0  0  0  0  0  0  0
   -4.7806  -19.0182   25.5209 O   0  0  0  0  0  0  0  0  0  0  0  0
   -5.1598  -16.6803   26.7373 C   0  0  0  0  0  0  0  0  0  0  0  0
   -3.4991  -15.7399   26.3419 C   0  0  0  0  0  0  0  0  0  0  0  0
   -2.4658  -16.3087   25.7532 N   0  0  0  0  0  0  0  0  0  0  0  0
   -1.6028  -15.4653   26.0685 C   0  0  0  0  0  0  0  0  0  0  0  0
   -2.2194  -14.1662   26.2556 C   0  0  0  0  0  0  0  0  0  0  0  0
   -3.3500  -14.5585   26.8318 N   0  0  0  0  0  0  0  0  0  0  0  0
  -10.0978  -20.5463   28.9152 H   0  0  0  0  0  0  0  0  0  0  0  0
  -11.0476  -22.0167   28.9849 H   0  0  0  0  0  0  0  0  0  0  0  0
  -10.8121  -21.2058   27.4572 H   0  0  0  0  0  0  0  0  0  0  0  0
   -8.1960  -22.3028   28.8622 H   0  0  0  0  0  0  0  0  0  0  0  0
   -9.3961  -23.1012   28.8521 H   0  0  0  0  0  0  0  0  0  0  0  0
  -12.9319  -24.3648   26.1356 H   0  0  0  0  0  0  0  0  0  0  0  0
  -13.6723  -26.1113   28.1244 H   0  0  0  0  0  0  0  0  0  0  0  0
  -11.3045  -27.6688   29.6243 H   0  0  0  0  0  0  0  0  0  0  0  0
  -10.8137  -26.2022   30.5489 H   0  0  0  0  0  0  0  0  0  0  0  0
  -12.5421  -26.6065   30.3653 H   0  0  0  0  0  0  0  0  0  0  0  0
   -6.3096  -22.2050   26.6888 H   0  0  0  0  0  0  0  0  0  0  0  0
   -7.5715  -23.4772   24.6476 H   0  0  0  0  0  0  0  0  0  0  0  0
   -7.3135  -22.1388   23.9682 H   0  0  0  0  0  0  0  0  0  0  0  0
   -5.8506  -22.8615   24.7641 H   0  0  0  0  0  0  0  0  0  0  0  0
   -6.0517  -21.0358   27.8407 H   0  0  0  0  0  0  0  0  0  0  0  0
   -7.6638  -20.8111   28.2365 H   0  0  0  0  0  0  0  0  0  0  0  0
   -7.1373  -18.5337   27.7952 H   0  0  0  0  0  0  0  0  0  0  0  0
   -4.3889  -17.1421   27.1206 H   0  0  0  0  0  0  0  0  0  0  0  0
   -5.4808  -16.1107   27.7292 H   0  0  0  0  0  0  0  0  0  0  0  0
   -0.5782  -15.8219   26.0332 H   0  0  0  0  0  0  0  0  0  0  0  0
   -1.8382  -13.1808   26.4656 H   0  0  0  0  0  0  0  0  0  0  0  0
   -3.7908  -14.2097   27.6632 H   0  0  0  0  0  0  0  0  0  0  0  0
  1  2  1  0
  2  3  1  0
  3  4  1  0
  4  5  2  0
  4  6  1  0
  6  7  1  0
  7  8  2  0
  8  9  1  0
  9 10  1  0
  9 11  1  0
  3 12  1  0
 12 13  1  0
 12 14  1  0
 14 15  1  0
 15 16  1  0
 16 17  2  0
 16 18  1  0
 18 19  1  0
 19 20  2  0
 20 21  1  0
 21 22  2  0
 22 23  1  0
 11  6  2  0
 23 19  1  0
  1 24  1  0
  1 25  1  0
  1 26  1  0
  2 27  1  0
  2 28  1  0
  7 29  1  0
  8 30  1  0
 10 31  1  0
 10 32  1  0
 10 33  1  0
 12 34  1  0
 13 35  1  0
 13 36  1  0
 13 37  1  0
 14 38  1  0
 14 39  1  0
 15 40  1  0
 18 41  1  0
 18 42  1  0
 21 43  1  0
 22 44  1  0
 23 45  1  0
M  END
>  <Energy>  (265) 
530.4667155433458

>  <compound_id>  (265) 
18008

>  <target_id>  (265) 
1

>  <reference_id>  (265) 
96

>  <inspiration_ids>  (265) 
[96, 116]

>  <energy_score>  (265) 
438.991088872785

>  <distance_score>  (265) 
3.490482822944209

>  <path>  (265) 
/opt/xchem-fragalysis-2/maxwin/BulkDock/SCRATCH/511020/C18008-P96/C18008-P96.minimised.mol

>  <scratch_subdir>  (265) 
/opt/xchem-fragalysis-2/maxwin/BulkDock/SCRATCH/511020/C18008-P96

>  <fragmenstein_runtime>  (265) 
22.615870475769043

>  <fragmenstein_outcome>  (265) 
too moved

>  <fragmenstein_mode>  (265) 
expansion

>  <fragmenstein_error>  (265) 


$$$$
C18008-P116
     RDKit          3D

 45 46  0  0  0  0  0  0  0  0999 V2000
   -8.6853  -22.2929   23.1983 C   0  0  0  0  0  0  0  0  0  0  0  0
   -7.9867  -20.6424   22.6565 C   0  0  0  0  0  0  0  0  0  0  0  0
   -8.7950  -19.6213   22.8303 N   0  0  0  0  0  0  0  0  0  0  0  0
  -10.4447  -20.2415   23.3712 C   0  0  0  0  0  0  0  0  0  0  0  0
  -10.8709  -20.4219   24.4525 O   0  0  0  0  0  0  0  0  0  0  0  0
  -11.4306  -20.7540   22.3574 C   0  0  0  0  0  0  0  0  0  0  0  0
  -11.2968  -21.5211   21.1709 C   0  0  0  0  0  0  0  0  0  0  0  0
  -12.2474  -22.5204   21.2663 C   0  0  0  0  0  0  0  0  0  0  0  0
  -12.8404  -22.3854   22.4943 N   0  0  0  0  0  0  0  0  0  0  0  0
  -13.9242  -23.0580   23.1999 C   0  0  0  0  0  0  0  0  0  0  0  0
  -12.4127  -21.3302   23.0927 N   0  0  0  0  0  0  0  0  0  0  0  0
   -7.1960  -18.9114   23.8557 C   0  0  0  0  0  0  0  0  0  0  0  0
   -6.5626  -18.4463   22.3509 C   0  0  0  0  0  0  0  0  0  0  0  0
   -6.1839  -19.4315   25.7521 C   0  0  0  0  0  0  0  0  0  0  0  0
   -5.4855  -18.3041   27.2631 N   0  0  0  0  0  0  0  0  0  0  0  0
   -3.7790  -17.3825   27.3079 C   0  0  0  0  0  0  0  0  0  0  0  0
   -2.8263  -17.4162   26.5013 O   0  0  0  0  0  0  0  0  0  0  0  0
   -3.5287  -16.4614   28.2322 C   0  0  0  0  0  0  0  0  0  0  0  0
   -2.2331  -15.2524   28.2724 C   0  0  0  0  0  0  0  0  0  0  0  0
   -1.3822  -15.0895   29.2828 N   0  0  0  0  0  0  0  0  0  0  0  0
   -0.6344  -13.9642   29.0469 C   0  0  0  0  0  0  0  0  0  0  0  0
   -1.0451  -13.3660   27.8917 C   0  0  0  0  0  0  0  0  0  0  0  0
   -1.9607  -14.2418   27.3579 N   0  0  0  0  0  0  0  0  0  0  0  0
   -8.0441  -22.8332   23.8663 H   0  0  0  0  0  0  0  0  0  0  0  0
   -8.5103  -23.2350   22.7267 H   0  0  0  0  0  0  0  0  0  0  0  0
   -9.7575  -22.3302   23.3214 H   0  0  0  0  0  0  0  0  0  0  0  0
   -7.9201  -19.9751   21.7562 H   0  0  0  0  0  0  0  0  0  0  0  0
   -8.7188  -21.0599   21.9091 H   0  0  0  0  0  0  0  0  0  0  0  0
  -10.5421  -21.4707   20.4027 H   0  0  0  0  0  0  0  0  0  0  0  0
  -12.4954  -23.3037   20.5612 H   0  0  0  0  0  0  0  0  0  0  0  0
  -14.6776  -22.3226   23.4975 H   0  0  0  0  0  0  0  0  0  0  0  0
  -14.3675  -23.8341   22.5727 H   0  0  0  0  0  0  0  0  0  0  0  0
  -13.5540  -23.4623   24.1421 H   0  0  0  0  0  0  0  0  0  0  0  0
   -6.9973  -17.8276   23.8483 H   0  0  0  0  0  0  0  0  0  0  0  0
   -7.3479  -17.8534   21.8541 H   0  0  0  0  0  0  0  0  0  0  0  0
   -6.3027  -19.1902   21.6039 H   0  0  0  0  0  0  0  0  0  0  0  0
   -5.7186  -17.7959   22.3413 H   0  0  0  0  0  0  0  0  0  0  0  0
   -5.5252  -20.3269   25.9194 H   0  0  0  0  0  0  0  0  0  0  0  0
   -5.3401  -19.4623   25.0831 H   0  0  0  0  0  0  0  0  0  0  0  0
   -6.0207  -18.1334   28.1160 H   0  0  0  0  0  0  0  0  0  0  0  0
   -4.4059  -16.4326   28.8998 H   0  0  0  0  0  0  0  0  0  0  0  0
   -2.6148  -17.0928   28.2390 H   0  0  0  0  0  0  0  0  0  0  0  0
    0.1328  -13.6401   29.7370 H   0  0  0  0  0  0  0  0  0  0  0  0
   -0.7345  -12.4741   27.3654 H   0  0  0  0  0  0  0  0  0  0  0  0
   -2.4099  -14.1116   26.4668 H   0  0  0  0  0  0  0  0  0  0  0  0
  1  2  1  0
  2  3  1  0
  3  4  1  0
  4  5  2  0
  4  6  1  0
  6  7  1  0
  7  8  2  0
  8  9  1  0
  9 10  1  0
  9 11  1  0
  3 12  1  0
 12 13  1  0
 12 14  1  0
 14 15  1  0
 15 16  1  0
 16 17  2  0
 16 18  1  0
 18 19  1  0
 19 20  2  0
 20 21  1  0
 21 22  2  0
 22 23  1  0
 11  6  2  0
 23 19  1  0
  1 24  1  0
  1 25  1  0
  1 26  1  0
  2 27  1  0
  2 28  1  0
  7 29  1  0
  8 30  1  0
 10 31  1  0
 10 32  1  0
 10 33  1  0
 12 34  1  0
 13 35  1  0
 13 36  1  0
 13 37  1  0
 14 38  1  0
 14 39  1  0
 15 40  1  0
 18 41  1  0
 18 42  1  0
 21 43  1  0
 22 44  1  0
 23 45  1  0
M  END
>  <Energy>  (266) 
992.23270789108074

>  <compound_id>  (266) 
18008

>  <target_id>  (266) 
1

>  <reference_id>  (266) 
116

>  <inspiration_ids>  (266) 
[96, 116]

>  <energy_score>  (266) 
900.7570812205299

>  <distance_score>  (266) 
6.234776488782357

>  <path>  (266) 
/opt/xchem-fragalysis-2/maxwin/BulkDock/SCRATCH/511020/C18008-P116/C18008-P116.minimised.mol

>  <scratch_subdir>  (266) 
/opt/xchem-fragalysis-2/maxwin/BulkDock/SCRATCH/511020/C18008-P116

>  <fragmenstein_runtime>  (266) 
17.033198356628418

>  <fragmenstein_outcome>  (266) 
too moved

>  <fragmenstein_mode>  (266) 
expansion

>  <fragmenstein_error>  (266) 


$$$$
C18009-P96
     RDKit          3D

 44 45  0  0  0  0  0  0  0  0999 V2000
  -11.6210  -16.9000   28.3851 C   0  0  0  0  0  0  0  0  0  0  0  0
  -10.0859  -17.0319   28.5298 O   0  0  0  0  0  0  0  0  0  0  0  0
   -8.3779  -16.7824   27.6253 C   0  0  0  0  0  0  0  0  0  0  0  0
   -6.5696  -15.8406   27.4573 C   0  0  0  0  0  0  0  0  0  0  0  0
   -4.9343  -17.0827   27.1574 N   0  0  0  0  0  0  0  0  0  0  0  0
   -4.0784  -15.5004   26.4133 C   0  0  0  0  0  0  0  0  0  0  0  0
   -3.6170  -14.3857   27.1961 C   0  0  0  0  0  0  0  0  0  0  0  0
   -3.9953  -14.2391   28.4388 N   0  0  0  0  0  0  0  0  0  0  0  0
   -3.1093  -13.4286   28.9200 C   0  0  0  0  0  0  0  0  0  0  0  0
   -2.3456  -12.7718   27.9498 C   0  0  0  0  0  0  0  0  0  0  0  0
   -2.6280  -13.3923   26.7566 N   0  0  0  0  0  0  0  0  0  0  0  0
   -5.4995  -18.5955   26.4084 C   0  0  0  0  0  0  0  0  0  0  0  0
   -5.4223  -18.5233   25.3079 O   0  0  0  0  0  0  0  0  0  0  0  0
   -6.2411  -19.9664   27.5208 N   0  0  0  0  0  0  0  0  0  0  0  0
   -7.2050  -21.5818   27.1323 C   0  0  0  0  0  0  0  0  0  0  0  0
   -8.7841  -22.8355   26.8537 C   0  0  0  0  0  0  0  0  0  0  0  0
   -8.4190  -22.0464   28.5790 C   0  0  0  0  0  0  0  0  0  0  0  0
   -8.4811  -23.2701   29.4877 C   0  0  0  0  0  0  0  0  0  0  0  0
   -9.7479  -23.3169   30.0175 C   0  0  0  0  0  0  0  0  0  0  0  0
  -10.4083  -22.2424   29.5081 N   0  0  0  0  0  0  0  0  0  0  0  0
  -11.7583  -21.8639   29.8256 C   0  0  0  0  0  0  0  0  0  0  0  0
   -9.6788  -21.4481   28.6826 N   0  0  0  0  0  0  0  0  0  0  0  0
  -12.2991  -16.0346   28.4182 H   0  0  0  0  0  0  0  0  0  0  0  0
  -11.9036  -16.4552   29.2981 H   0  0  0  0  0  0  0  0  0  0  0  0
  -12.0965  -17.8442   28.6478 H   0  0  0  0  0  0  0  0  0  0  0  0
   -8.8408  -16.5522   26.6676 H   0  0  0  0  0  0  0  0  0  0  0  0
   -8.1036  -17.7637   27.8925 H   0  0  0  0  0  0  0  0  0  0  0  0
   -5.9996  -15.6881   28.4346 H   0  0  0  0  0  0  0  0  0  0  0  0
   -6.7599  -14.7324   27.6111 H   0  0  0  0  0  0  0  0  0  0  0  0
   -3.0933  -16.0294   26.5328 H   0  0  0  0  0  0  0  0  0  0  0  0
   -3.4476  -15.4337   25.4559 H   0  0  0  0  0  0  0  0  0  0  0  0
   -2.7445  -13.5609   29.9519 H   0  0  0  0  0  0  0  0  0  0  0  0
   -1.3690  -12.5141   28.2739 H   0  0  0  0  0  0  0  0  0  0  0  0
   -2.2240  -13.2797   25.8483 H   0  0  0  0  0  0  0  0  0  0  0  0
   -6.1094  -19.8134   28.4035 H   0  0  0  0  0  0  0  0  0  0  0  0
   -7.7008  -20.7220   27.5890 H   0  0  0  0  0  0  0  0  0  0  0  0
   -8.9461  -23.2917   25.8528 H   0  0  0  0  0  0  0  0  0  0  0  0
   -8.8659  -23.7617   27.4539 H   0  0  0  0  0  0  0  0  0  0  0  0
   -9.8347  -22.4560   26.9106 H   0  0  0  0  0  0  0  0  0  0  0  0
   -7.7338  -24.0336   29.6104 H   0  0  0  0  0  0  0  0  0  0  0  0
  -10.2242  -24.0251   30.6806 H   0  0  0  0  0  0  0  0  0  0  0  0
  -12.0297  -22.2669   30.8045 H   0  0  0  0  0  0  0  0  0  0  0  0
  -11.8211  -20.7734   29.8494 H   0  0  0  0  0  0  0  0  0  0  0  0
  -12.4050  -22.2820   29.0541 H   0  0  0  0  0  0  0  0  0  0  0  0
  1  2  1  0
  2  3  1  0
  3  4  1  0
  4  5  1  0
  5  6  1  0
  6  7  1  0
  7  8  2  0
  8  9  1  0
  9 10  2  0
 10 11  1  0
  5 12  1  0
 12 13  2  0
 12 14  1  0
 14 15  1  0
 15 16  1  0
 15 17  1  0
 17 18  1  0
 18 19  2  0
 19 20  1  0
 20 21  1  0
 20 22  1  0
 11  7  1  0
 22 17  2  0
  1 23  1  0
  1 24  1  0
  1 25  1  0
  3 26  1  0
  3 27  1  0
  4 28  1  0
  4 29  1  0
  6 30  1  0
  6 31  1  0
  9 32  1  0
 10 33  1  0
 11 34  1  0
 14 35  1  0
 15 36  1  0
 16 37  1  0
 16 38  1  0
 16 39  1  0
 18 40  1  0
 19 41  1  0
 21 42  1  0
 21 43  1  0
 21 44  1  0
M  END
>  <Energy>  (267) 
1080.6098203558424

>  <compound_id>  (267) 
18009

>  <target_id>  (267) 
1

>  <reference_id>  (267) 
96

>  <inspiration_ids>  (267) 
[96, 116]

>  <energy_score>  (267) 
1086.987270393894

>  <distance_score>  (267) 
2.4600249158308727

>  <path>  (267) 
/opt/xchem-fragalysis-2/maxwin/BulkDock/SCRATCH/511020/C18009-P96/C18009-P96.minimised.mol

>  <scratch_subdir>  (267) 
/opt/xchem-fragalysis-2/maxwin/BulkDock/SCRATCH/511020/C18009-P96

>  <fragmenstein_runtime>  (267) 
13.112818241119385

>  <fragmenstein_outcome>  (267) 
too moved

>  <fragmenstein_mode>  (267) 
expansion

>  <fragmenstein_error>  (267) 


$$$$
C18009-P116
     RDKit          3D

 44 45  0  0  0  0  0  0  0  0999 V2000
  -12.6984  -15.3829   30.0197 C   0  0  0  0  0  0  0  0  0  0  0  0
  -11.9389  -14.4007   29.0488 O   0  0  0  0  0  0  0  0  0  0  0  0
  -11.0770  -14.4687   27.9146 C   0  0  0  0  0  0  0  0  0  0  0  0
   -9.2851  -14.1168   28.2061 C   0  0  0  0  0  0  0  0  0  0  0  0
   -8.0939  -15.0382   27.9597 N   0  0  0  0  0  0  0  0  0  0  0  0
   -7.3492  -13.3925   27.2221 C   0  0  0  0  0  0  0  0  0  0  0  0
   -5.7600  -12.2013   27.6526 C   0  0  0  0  0  0  0  0  0  0  0  0
   -4.3951  -12.2211   27.1396 N   0  0  0  0  0  0  0  0  0  0  0  0
   -3.1582  -12.1053   27.8919 C   0  0  0  0  0  0  0  0  0  0  0  0
   -3.5771  -12.1627   29.1812 C   0  0  0  0  0  0  0  0  0  0  0  0
   -5.0573  -12.2482   29.2499 N   0  0  0  0  0  0  0  0  0  0  0  0
   -8.6677  -16.5996   27.1784 C   0  0  0  0  0  0  0  0  0  0  0  0
   -8.6736  -16.5522   26.0263 O   0  0  0  0  0  0  0  0  0  0  0  0
   -8.9835  -18.0599   28.3400 N   0  0  0  0  0  0  0  0  0  0  0  0
   -9.2949  -19.9901   28.0358 C   0  0  0  0  0  0  0  0  0  0  0  0
   -7.9357  -21.3962   27.5682 C   0  0  0  0  0  0  0  0  0  0  0  0
  -10.5791  -21.4179   28.0087 C   0  0  0  0  0  0  0  0  0  0  0  0
  -10.4509  -22.8460   27.9878 C   0  0  0  0  0  0  0  0  0  0  0  0
  -11.3211  -22.8759   28.9940 C   0  0  0  0  0  0  0  0  0  0  0  0
  -12.3023  -22.0018   28.7289 N   0  0  0  0  0  0  0  0  0  0  0  0
  -12.8323  -21.2461   29.8073 C   0  0  0  0  0  0  0  0  0  0  0  0
  -11.9007  -21.4137   27.6374 N   0  0  0  0  0  0  0  0  0  0  0  0
  -12.1102  -15.6681   30.8864 H   0  0  0  0  0  0  0  0  0  0  0  0
  -13.4978  -14.8722   30.4874 H   0  0  0  0  0  0  0  0  0  0  0  0
  -13.0343  -16.1814   29.3800 H   0  0  0  0  0  0  0  0  0  0  0  0
  -11.3562  -13.6391   27.2566 H   0  0  0  0  0  0  0  0  0  0  0  0
  -11.2359  -15.3581   27.2964 H   0  0  0  0  0  0  0  0  0  0  0  0
   -9.3584  -14.4186   27.1388 H   0  0  0  0  0  0  0  0  0  0  0  0
   -9.3295  -13.2243   27.6793 H   0  0  0  0  0  0  0  0  0  0  0  0
   -8.0233  -12.7062   26.8178 H   0  0  0  0  0  0  0  0  0  0  0  0
   -6.9909  -13.7731   26.2785 H   0  0  0  0  0  0  0  0  0  0  0  0
   -2.1876  -12.0804   27.4090 H   0  0  0  0  0  0  0  0  0  0  0  0
   -2.9405  -12.0819   30.0105 H   0  0  0  0  0  0  0  0  0  0  0  0
   -5.5103  -12.7305   30.0085 H   0  0  0  0  0  0  0  0  0  0  0  0
   -8.8373  -17.8280   29.2521 H   0  0  0  0  0  0  0  0  0  0  0  0
   -8.6334  -19.7773   28.8239 H   0  0  0  0  0  0  0  0  0  0  0  0
   -7.9214  -22.1091   26.7591 H   0  0  0  0  0  0  0  0  0  0  0  0
   -6.8851  -21.1986   27.5199 H   0  0  0  0  0  0  0  0  0  0  0  0
   -8.0006  -22.2778   28.2140 H   0  0  0  0  0  0  0  0  0  0  0  0
   -9.5931  -23.4894   27.8749 H   0  0  0  0  0  0  0  0  0  0  0  0
  -11.0931  -22.9186   30.0197 H   0  0  0  0  0  0  0  0  0  0  0  0
  -12.1095  -21.2330   30.6219 H   0  0  0  0  0  0  0  0  0  0  0  0
  -13.0357  -20.2561   29.4228 H   0  0  0  0  0  0  0  0  0  0  0  0
  -13.7306  -21.6837   30.1939 H   0  0  0  0  0  0  0  0  0  0  0  0
  1  2  1  0
  2  3  1  0
  3  4  1  0
  4  5  1  0
  5  6  1  0
  6  7  1  0
  7  8  2  0
  8  9  1  0
  9 10  2  0
 10 11  1  0
  5 12  1  0
 12 13  2  0
 12 14  1  0
 14 15  1  0
 15 16  1  0
 15 17  1  0
 17 18  1  0
 18 19  2  0
 19 20  1  0
 20 21  1  0
 20 22  1  0
 11  7  1  0
 22 17  2  0
  1 23  1  0
  1 24  1  0
  1 25  1  0
  3 26  1  0
  3 27  1  0
  4 28  1  0
  4 29  1  0
  6 30  1  0
  6 31  1  0
  9 32  1  0
 10 33  1  0
 11 34  1  0
 14 35  1  0
 15 36  1  0
 16 37  1  0
 16 38  1  0
 16 39  1  0
 18 40  1  0
 19 41  1  0
 21 42  1  0
 21 43  1  0
 21 44  1  0
M  END
>  <Energy>  (268) 
913.30273003425361

>  <compound_id>  (268) 
18009

>  <target_id>  (268) 
1

>  <reference_id>  (268) 
116

>  <inspiration_ids>  (268) 
[96, 116]

>  <energy_score>  (268) 
919.6801800723123

>  <distance_score>  (268) 
3.2062775004529493

>  <path>  (268) 
/opt/xchem-fragalysis-2/maxwin/BulkDock/SCRATCH/511020/C18009-P116/C18009-P116.minimised.mol

>  <scratch_subdir>  (268) 
/opt/xchem-fragalysis-2/maxwin/BulkDock/SCRATCH/511020/C18009-P116

>  <fragmenstein_runtime>  (268) 
17.437577486038208

>  <fragmenstein_outcome>  (268) 
too moved

>  <fragmenstein_mode>  (268) 
expansion

>  <fragmenstein_error>  (268) 


$$$$
C18010-P96
     RDKit          3D

 29 30  0  0  0  0  0  0  0  0999 V2000
   -9.7761  -20.2240   32.1940 C   0  0  0  0  0  0  0  0  0  0  0  0
   -8.4932  -20.4577   33.2119 N   0  0  0  0  0  0  0  0  0  0  0  0
   -8.6949  -22.0009   32.7330 C   0  0  0  0  0  0  0  0  0  0  0  0
  -10.0827  -22.6332   32.8915 C   0  0  0  0  0  0  0  0  0  0  0  0
  -10.7321  -23.2331   31.9063 N   0  0  0  0  0  0  0  0  0  0  0  0
  -12.0568  -23.1718   32.2400 C   0  0  0  0  0  0  0  0  0  0  0  0
  -12.2074  -22.5793   33.4665 C   0  0  0  0  0  0  0  0  0  0  0  0
  -10.9334  -22.4290   33.9553 N   0  0  0  0  0  0  0  0  0  0  0  0
   -7.2478  -19.3310   32.8676 C   0  0  0  0  0  0  0  0  0  0  0  0
   -6.3344  -19.5024   32.1002 O   0  0  0  0  0  0  0  0  0  0  0  0
   -7.1466  -17.7229   33.5600 C   0  0  0  0  0  0  0  0  0  0  0  0
   -7.2850  -16.2288   33.2214 N   0  0  0  0  0  0  0  0  0  0  0  0
   -7.5573  -15.1992   34.1378 C   0  0  0  0  0  0  0  0  0  0  0  0
   -7.2537  -13.9978   33.5563 C   0  0  0  0  0  0  0  0  0  0  0  0
   -6.4773  -14.4120   32.4970 C   0  0  0  0  0  0  0  0  0  0  0  0
   -6.5315  -15.6969   32.2425 N   0  0  0  0  0  0  0  0  0  0  0  0
  -10.6669  -20.1559   32.8326 H   0  0  0  0  0  0  0  0  0  0  0  0
   -9.6886  -19.2151   31.7826 H   0  0  0  0  0  0  0  0  0  0  0  0
   -9.9981  -20.8787   31.3516 H   0  0  0  0  0  0  0  0  0  0  0  0
   -8.2375  -22.3144   31.8038 H   0  0  0  0  0  0  0  0  0  0  0  0
   -8.0974  -22.5514   33.4674 H   0  0  0  0  0  0  0  0  0  0  0  0
  -12.8272  -23.5246   31.5668 H   0  0  0  0  0  0  0  0  0  0  0  0
  -13.0683  -22.3057   34.0588 H   0  0  0  0  0  0  0  0  0  0  0  0
  -10.7151  -22.0366   34.8649 H   0  0  0  0  0  0  0  0  0  0  0  0
   -7.1541  -17.6555   34.6166 H   0  0  0  0  0  0  0  0  0  0  0  0
   -6.0761  -17.6823   33.2944 H   0  0  0  0  0  0  0  0  0  0  0  0
   -7.8654  -15.3694   35.1542 H   0  0  0  0  0  0  0  0  0  0  0  0
   -7.3415  -13.0144   33.9932 H   0  0  0  0  0  0  0  0  0  0  0  0
   -5.7732  -13.9103   31.8831 H   0  0  0  0  0  0  0  0  0  0  0  0
  1  2  1  0
  2  3  1  0
  3  4  1  0
  4  5  2  0
  5  6  1  0
  6  7  2  0
  7  8  1  0
  2  9  1  0
  9 10  2  0
  9 11  1  0
 11 12  1  0
 12 13  1  0
 13 14  2  0
 14 15  1  0
 15 16  2  0
  8  4  1  0
 16 12  1  0
  1 17  1  0
  1 18  1  0
  1 19  1  0
  3 20  1  0
  3 21  1  0
  6 22  1  0
  7 23  1  0
  8 24  1  0
 11 25  1  0
 11 26  1  0
 13 27  1  0
 14 28  1  0
 15 29  1  0
M  END
>  <Energy>  (269) 
223.65279339305519

>  <compound_id>  (269) 
18010

>  <target_id>  (269) 
1

>  <reference_id>  (269) 
96

>  <inspiration_ids>  (269) 
[96, 116]

>  <energy_score>  (269) 
197.39498861190725

>  <distance_score>  (269) 
6.381868425718943

>  <path>  (269) 
/opt/xchem-fragalysis-2/maxwin/BulkDock/SCRATCH/511020/C18010-P96/C18010-P96.minimised.mol

>  <scratch_subdir>  (269) 
/opt/xchem-fragalysis-2/maxwin/BulkDock/SCRATCH/511020/C18010-P96

>  <fragmenstein_runtime>  (269) 
30.617772340774536

>  <fragmenstein_outcome>  (269) 
too moved

>  <fragmenstein_mode>  (269) 
expansion

>  <fragmenstein_error>  (269) 


$$$$
C18010-P116
     RDKit          3D

 29 30  0  0  0  0  0  0  0  0999 V2000
   -7.6194  -16.5150   33.5254 C   0  0  0  0  0  0  0  0  0  0  0  0
   -6.5560  -17.4524   32.9830 N   0  0  0  0  0  0  0  0  0  0  0  0
   -7.0066  -18.2866   34.2031 C   0  0  0  0  0  0  0  0  0  0  0  0
   -6.2746  -19.5870   34.2653 C   0  0  0  0  0  0  0  0  0  0  0  0
   -6.7958  -20.7810   34.4715 N   0  0  0  0  0  0  0  0  0  0  0  0
   -5.7781  -21.6561   34.2317 C   0  0  0  0  0  0  0  0  0  0  0  0
   -4.6306  -20.9750   33.8984 C   0  0  0  0  0  0  0  0  0  0  0  0
   -4.9161  -19.6688   34.1612 N   0  0  0  0  0  0  0  0  0  0  0  0
   -6.7573  -17.6889   31.5013 C   0  0  0  0  0  0  0  0  0  0  0  0
   -7.3956  -18.5406   30.9329 O   0  0  0  0  0  0  0  0  0  0  0  0
   -5.7078  -16.5342   30.1266 C   0  0  0  0  0  0  0  0  0  0  0  0
   -4.3549  -16.4593   28.7698 N   0  0  0  0  0  0  0  0  0  0  0  0
   -2.9114  -15.4249   28.6429 C   0  0  0  0  0  0  0  0  0  0  0  0
   -1.9697  -15.9897   27.8597 C   0  0  0  0  0  0  0  0  0  0  0  0
   -2.5785  -17.1329   27.3727 C   0  0  0  0  0  0  0  0  0  0  0  0
   -3.8145  -17.4105   27.8579 N   0  0  0  0  0  0  0  0  0  0  0  0
   -7.8603  -15.6883   32.8577 H   0  0  0  0  0  0  0  0  0  0  0  0
   -8.6211  -16.9415   33.6733 H   0  0  0  0  0  0  0  0  0  0  0  0
   -7.2440  -16.0434   34.4439 H   0  0  0  0  0  0  0  0  0  0  0  0
   -6.7823  -17.7943   35.1626 H   0  0  0  0  0  0  0  0  0  0  0  0
   -8.0532  -18.6228   34.1285 H   0  0  0  0  0  0  0  0  0  0  0  0
   -5.9404  -22.7253   34.2686 H   0  0  0  0  0  0  0  0  0  0  0  0
   -3.6552  -21.2912   33.5600 H   0  0  0  0  0  0  0  0  0  0  0  0
   -4.2959  -18.8793   34.0503 H   0  0  0  0  0  0  0  0  0  0  0  0
   -6.2067  -16.9835   29.2918 H   0  0  0  0  0  0  0  0  0  0  0  0
   -5.9606  -15.4743   30.1561 H   0  0  0  0  0  0  0  0  0  0  0  0
   -2.9028  -14.6788   29.3793 H   0  0  0  0  0  0  0  0  0  0  0  0
   -0.9419  -15.7081   27.9343 H   0  0  0  0  0  0  0  0  0  0  0  0
   -2.1327  -17.8744   26.7268 H   0  0  0  0  0  0  0  0  0  0  0  0
  1  2  1  0
  2  3  1  0
  3  4  1  0
  4  5  2  0
  5  6  1  0
  6  7  2  0
  7  8  1  0
  2  9  1  0
  9 10  2  0
  9 11  1  0
 11 12  1  0
 12 13  1  0
 13 14  2  0
 14 15  1  0
 15 16  2  0
  8  4  1  0
 16 12  1  0
  1 17  1  0
  1 18  1  0
  1 19  1  0
  3 20  1  0
  3 21  1  0
  6 22  1  0
  7 23  1  0
  8 24  1  0
 11 25  1  0
 11 26  1  0
 13 27  1  0
 14 28  1  0
 15 29  1  0
M  END
>  <Energy>  (270) 
345.70775800723152

>  <compound_id>  (270) 
18010

>  <target_id>  (270) 
1

>  <reference_id>  (270) 
116

>  <inspiration_ids>  (270) 
[96, 116]

>  <energy_score>  (270) 
319.44995322607383

>  <distance_score>  (270) 
5.425608357764585

>  <path>  (270) 
/opt/xchem-fragalysis-2/maxwin/BulkDock/SCRATCH/511020/C18010-P116/C18010-P116.minimised.mol

>  <scratch_subdir>  (270) 
/opt/xchem-fragalysis-2/maxwin/BulkDock/SCRATCH/511020/C18010-P116

>  <fragmenstein_runtime>  (270) 
27.599236726760864

>  <fragmenstein_outcome>  (270) 
too moved

>  <fragmenstein_mode>  (270) 
expansion

>  <fragmenstein_error>  (270) 


$$$$
C48390-P95
     RDKit          3D

 49 51  0  0  0  0  0  0  0  0999 V2000
  -15.8136  -20.8992   13.5973 C   0  0  0  0  0  0  0  0  0  0  0  0
  -13.9875  -19.8929   14.3330 S   0  0  0  0  0  0  0  0  0  0  0  0
  -13.9145  -17.6892   14.5378 C   0  0  0  0  0  0  0  0  0  0  0  0
  -12.5161  -16.5206   14.3893 C   0  0  0  0  0  0  0  0  0  0  0  0
  -11.0830  -16.0610   13.2938 C   0  0  0  0  0  0  0  0  0  0  0  0
  -10.5872  -14.2643   13.1784 N   0  0  0  0  0  0  0  0  0  0  0  0
  -10.5203  -13.1914   11.8352 C   0  0  0  0  0  0  0  0  0  0  0  0
  -10.7145  -13.4929   10.7226 O   0  0  0  0  0  0  0  0  0  0  0  0
  -10.2975  -11.4533   11.9338 C   0  0  0  0  0  0  0  0  0  0  0  0
  -10.7599  -11.2470   10.0042 C   0  0  0  0  0  0  0  0  0  0  0  0
  -10.4389   -9.6944    9.6997 C   0  0  0  0  0  0  0  0  0  0  0  0
   -9.5753   -9.0962   10.9468 C   0  0  0  0  0  0  0  0  0  0  0  0
  -10.7090   -9.6530   11.4620 N   0  0  0  0  0  0  0  0  0  0  0  0
  -12.3380   -9.2509   10.3961 C   0  0  0  0  0  0  0  0  0  0  0  0
  -12.5699  -10.5260    9.6111 C   0  0  0  0  0  0  0  0  0  0  0  0
   -9.8142  -17.3160   13.4180 C   0  0  0  0  0  0  0  0  0  0  0  0
   -8.9376  -16.9581   14.2428 O   0  0  0  0  0  0  0  0  0  0  0  0
   -9.8826  -18.7498   12.3346 N   0  0  0  0  0  0  0  0  0  0  0  0
  -10.7476  -20.1595   13.1997 C   0  0  0  0  0  0  0  0  0  0  0  0
  -10.1341  -21.5748   13.2272 C   0  0  0  0  0  0  0  0  0  0  0  0
   -9.1002  -21.4844   12.1884 C   0  0  0  0  0  0  0  0  0  0  0  0
   -8.6988  -20.0061   11.9943 C   0  0  0  0  0  0  0  0  0  0  0  0
  -16.6348  -21.0025   14.3109 H   0  0  0  0  0  0  0  0  0  0  0  0
  -16.2808  -20.5018   12.6891 H   0  0  0  0  0  0  0  0  0  0  0  0
  -15.4429  -21.9123   13.4061 H   0  0  0  0  0  0  0  0  0  0  0  0
  -14.7578  -17.3088   13.9444 H   0  0  0  0  0  0  0  0  0  0  0  0
  -14.1893  -17.5678   15.5917 H   0  0  0  0  0  0  0  0  0  0  0  0
  -12.0117  -16.7451   15.3438 H   0  0  0  0  0  0  0  0  0  0  0  0
  -13.0196  -15.5511   14.5159 H   0  0  0  0  0  0  0  0  0  0  0  0
  -10.6958  -15.7850   14.3020 H   0  0  0  0  0  0  0  0  0  0  0  0
  -10.2956  -13.7744   14.0123 H   0  0  0  0  0  0  0  0  0  0  0  0
   -9.3082  -11.3630   12.3911 H   0  0  0  0  0  0  0  0  0  0  0  0
  -10.4726  -12.0870    9.3800 H   0  0  0  0  0  0  0  0  0  0  0  0
  -11.1113   -9.1880    9.1214 H   0  0  0  0  0  0  0  0  0  0  0  0
  -10.0835   -9.5391    8.5726 H   0  0  0  0  0  0  0  0  0  0  0  0
   -8.6711   -8.7525   10.4187 H   0  0  0  0  0  0  0  0  0  0  0  0
   -8.9893   -9.3976   11.8328 H   0  0  0  0  0  0  0  0  0  0  0  0
  -12.8990   -8.3855    9.9662 H   0  0  0  0  0  0  0  0  0  0  0  0
  -13.1905   -8.8716   11.1620 H   0  0  0  0  0  0  0  0  0  0  0  0
  -13.4032  -11.2151    9.8272 H   0  0  0  0  0  0  0  0  0  0  0  0
  -12.8716  -10.0023    8.6836 H   0  0  0  0  0  0  0  0  0  0  0  0
  -10.7688  -19.6656   14.1716 H   0  0  0  0  0  0  0  0  0  0  0  0
  -11.7957  -20.2823   13.0999 H   0  0  0  0  0  0  0  0  0  0  0  0
  -10.8663  -22.3558   12.9968 H   0  0  0  0  0  0  0  0  0  0  0  0
   -9.7025  -21.8205   14.2056 H   0  0  0  0  0  0  0  0  0  0  0  0
   -8.2312  -22.0936   12.4443 H   0  0  0  0  0  0  0  0  0  0  0  0
   -9.5820  -21.8809   11.2980 H   0  0  0  0  0  0  0  0  0  0  0  0
   -7.6386  -19.7041   11.9560 H   0  0  0  0  0  0  0  0  0  0  0  0
   -8.7878  -19.9712   10.9005 H   0  0  0  0  0  0  0  0  0  0  0  0
  1  2  1  0
  2  3  1  0
  3  4  1  0
  4  5  1  0
  5  6  1  0
  6  7  1  0
  7  8  2  0
  7  9  1  0
  9 10  1  0
 10 11  1  0
 11 12  1  0
 12 13  1  0
 13 14  1  0
 14 15  1  0
  5 16  1  0
 16 17  2  0
 16 18  1  0
 18 19  1  0
 19 20  1  0
 20 21  1  0
 21 22  1  0
 13  9  1  0
 22 18  1  0
 15 10  1  0
  1 23  1  0
  1 24  1  0
  1 25  1  0
  3 26  1  0
  3 27  1  0
  4 28  1  0
  4 29  1  0
  5 30  1  0
  6 31  1  0
  9 32  1  0
 10 33  1  0
 11 34  1  0
 11 35  1  0
 12 36  1  0
 12 37  1  0
 14 38  1  0
 14 39  1  0
 15 40  1  0
 15 41  1  0
 19 42  1  0
 19 43  1  0
 20 44  1  0
 20 45  1  0
 21 46  1  0
 21 47  1  0
 22 48  1  0
 22 49  1  0
M  END
>  <Energy>  (271) 
1111.2225292598009

>  <compound_id>  (271) 
48390

>  <target_id>  (271) 
1

>  <reference_id>  (271) 
95

>  <inspiration_ids>  (271) 
[95, 30]

>  <energy_score>  (271) 
989.6661709020511

>  <distance_score>  (271) 
8.97088853647554

>  <path>  (271) 
/opt/xchem-fragalysis-2/maxwin/BulkDock/SCRATCH/511020/C48390-P95/C48390-P95.minimised.mol

>  <scratch_subdir>  (271) 
/opt/xchem-fragalysis-2/maxwin/BulkDock/SCRATCH/511020/C48390-P95

>  <fragmenstein_runtime>  (271) 
22.218580961227417

>  <fragmenstein_outcome>  (271) 
too moved

>  <fragmenstein_mode>  (271) 
expansion

>  <fragmenstein_error>  (271) 


$$$$
C48390-P30
     RDKit          3D

 49 51  0  0  0  0  0  0  0  0999 V2000
  -20.7688  -14.2780    5.9759 C   0  0  0  0  0  0  0  0  0  0  0  0
  -19.6770  -14.6397    7.3723 S   0  0  0  0  0  0  0  0  0  0  0  0
  -18.4494  -13.3123    7.0972 C   0  0  0  0  0  0  0  0  0  0  0  0
  -17.3516  -13.3278    8.1653 C   0  0  0  0  0  0  0  0  0  0  0  0
  -17.8150  -12.7401    9.5159 C   0  0  0  0  0  0  0  0  0  0  0  0
  -17.4551  -11.3026    9.6220 N   0  0  0  0  0  0  0  0  0  0  0  0
  -17.4086  -10.2575    8.6191 C   0  0  0  0  0  0  0  0  0  0  0  0
  -17.7256  -10.2698    7.4610 O   0  0  0  0  0  0  0  0  0  0  0  0
  -16.9468   -8.8769    9.2459 C   0  0  0  0  0  0  0  0  0  0  0  0
  -15.6893   -8.8013   10.0958 C   0  0  0  0  0  0  0  0  0  0  0  0
  -14.6074   -9.1841    9.0950 C   0  0  0  0  0  0  0  0  0  0  0  0
  -15.0959   -8.5256    7.8158 C   0  0  0  0  0  0  0  0  0  0  0  0
  -16.3855   -7.8962    8.2119 N   0  0  0  0  0  0  0  0  0  0  0  0
  -16.0822   -6.7025    9.0426 C   0  0  0  0  0  0  0  0  0  0  0  0
  -15.5813   -7.2919   10.3601 C   0  0  0  0  0  0  0  0  0  0  0  0
  -17.3175  -13.5061   10.8191 C   0  0  0  0  0  0  0  0  0  0  0  0
  -17.1932  -12.8752   11.8438 O   0  0  0  0  0  0  0  0  0  0  0  0
  -17.0008  -14.8809   10.5218 N   0  0  0  0  0  0  0  0  0  0  0  0
  -18.1972  -15.7667   10.7914 C   0  0  0  0  0  0  0  0  0  0  0  0
  -18.3867  -16.1505   12.2484 C   0  0  0  0  0  0  0  0  0  0  0  0
  -16.9699  -16.2458   12.6729 C   0  0  0  0  0  0  0  0  0  0  0  0
  -16.3147  -15.9348   11.3520 C   0  0  0  0  0  0  0  0  0  0  0  0
  -21.5931  -14.9961    5.9683 H   0  0  0  0  0  0  0  0  0  0  0  0
  -21.1855  -13.2718    6.0690 H   0  0  0  0  0  0  0  0  0  0  0  0
  -20.2228  -14.3656    5.0330 H   0  0  0  0  0  0  0  0  0  0  0  0
  -18.9751  -12.3552    7.0754 H   0  0  0  0  0  0  0  0  0  0  0  0
  -17.9936  -13.4780    6.1154 H   0  0  0  0  0  0  0  0  0  0  0  0
  -16.4984  -12.7488    7.7888 H   0  0  0  0  0  0  0  0  0  0  0  0
  -16.9822  -14.3529    8.2452 H   0  0  0  0  0  0  0  0  0  0  0  0
  -18.9093  -12.7602    9.5845 H   0  0  0  0  0  0  0  0  0  0  0  0
  -17.0286  -10.9609   10.4772 H   0  0  0  0  0  0  0  0  0  0  0  0
  -17.8306   -8.4481    9.7371 H   0  0  0  0  0  0  0  0  0  0  0  0
  -15.6741   -9.4011   11.0076 H   0  0  0  0  0  0  0  0  0  0  0  0
  -14.5718  -10.2699    8.9835 H   0  0  0  0  0  0  0  0  0  0  0  0
  -13.6349   -8.8361    9.4218 H   0  0  0  0  0  0  0  0  0  0  0  0
  -15.2578   -9.2708    7.0291 H   0  0  0  0  0  0  0  0  0  0  0  0
  -14.3890   -7.7997    7.4210 H   0  0  0  0  0  0  0  0  0  0  0  0
  -15.3677   -6.0321    8.5610 H   0  0  0  0  0  0  0  0  0  0  0  0
  -17.0003   -6.1260    9.2064 H   0  0  0  0  0  0  0  0  0  0  0  0
  -14.5624   -6.9893   10.6126 H   0  0  0  0  0  0  0  0  0  0  0  0
  -16.2430   -6.9985   11.1831 H   0  0  0  0  0  0  0  0  0  0  0  0
  -18.1533  -16.6475   10.1286 H   0  0  0  0  0  0  0  0  0  0  0  0
  -19.0937  -15.2226   10.4657 H   0  0  0  0  0  0  0  0  0  0  0  0
  -18.9430  -17.0859   12.3565 H   0  0  0  0  0  0  0  0  0  0  0  0
  -18.9128  -15.3675   12.8052 H   0  0  0  0  0  0  0  0  0  0  0  0
  -16.6881  -17.2289   13.0591 H   0  0  0  0  0  0  0  0  0  0  0  0
  -16.7326  -15.4904   13.4295 H   0  0  0  0  0  0  0  0  0  0  0  0
  -15.3164  -15.5300   11.5638 H   0  0  0  0  0  0  0  0  0  0  0  0
  -16.1302  -16.8341   10.7419 H   0  0  0  0  0  0  0  0  0  0  0  0
  1  2  1  0
  2  3  1  0
  3  4  1  0
  4  5  1  0
  5  6  1  0
  6  7  1  0
  7  8  2  0
  7  9  1  0
  9 10  1  0
 10 11  1  0
 11 12  1  0
 12 13  1  0
 13 14  1  0
 14 15  1  0
  5 16  1  0
 16 17  2  0
 16 18  1  0
 18 19  1  0
 19 20  1  0
 20 21  1  0
 21 22  1  0
 13  9  1  0
 22 18  1  0
 15 10  1  0
  1 23  1  0
  1 24  1  0
  1 25  1  0
  3 26  1  0
  3 27  1  0
  4 28  1  0
  4 29  1  0
  5 30  1  0
  6 31  1  0
  9 32  1  0
 10 33  1  0
 11 34  1  0
 11 35  1  0
 12 36  1  0
 12 37  1  0
 14 38  1  0
 14 39  1  0
 15 40  1  0
 15 41  1  0
 19 42  1  0
 19 43  1  0
 20 44  1  0
 20 45  1  0
 21 46  1  0
 21 47  1  0
 22 48  1  0
 22 49  1  0
M  END
>  <Energy>  (272) 
143.2680192511331

>  <compound_id>  (272) 
48390

>  <target_id>  (272) 
1

>  <reference_id>  (272) 
30

>  <inspiration_ids>  (272) 
[95, 30]

>  <energy_score>  (272) 
21.71166089337237

>  <distance_score>  (272) 
11.813279451676859

>  <path>  (272) 
/opt/xchem-fragalysis-2/maxwin/BulkDock/SCRATCH/511020/C48390-P30/C48390-P30.minimised.mol

>  <scratch_subdir>  (272) 
/opt/xchem-fragalysis-2/maxwin/BulkDock/SCRATCH/511020/C48390-P30

>  <fragmenstein_runtime>  (272) 
32.97205710411072

>  <fragmenstein_outcome>  (272) 
too moved

>  <fragmenstein_mode>  (272) 
expansion

>  <fragmenstein_error>  (272) 


$$$$
C19387-P13
     RDKit          3D

 44 46  0  0  0  0  0  0  0  0999 V2000
  -10.5621   -2.9191   27.1541 C   0  0  0  0  0  0  0  0  0  0  0  0
   -9.3950   -3.6734   26.6485 N   0  0  0  0  0  0  0  0  0  0  0  0
   -9.9166   -4.7020   25.6716 C   0  0  0  0  0  0  0  0  0  0  0  0
  -10.5121   -4.1818   24.3344 C   0  0  0  0  0  0  0  0  0  0  0  0
  -10.1908   -3.0329   23.5615 C   0  0  0  0  0  0  0  0  0  0  0  0
  -11.0017   -3.0859   22.4481 C   0  0  0  0  0  0  0  0  0  0  0  0
  -11.7265   -4.2209   22.5744 N   0  0  0  0  0  0  0  0  0  0  0  0
  -11.4533   -4.9142   23.6956 N   0  0  0  0  0  0  0  0  0  0  0  0
   -8.6395   -4.3090   27.8230 C   0  0  0  0  0  0  0  0  0  0  0  0
   -7.6437   -3.3634   28.6439 C   0  0  0  0  0  0  0  0  0  0  0  0
   -7.9507   -2.0220   28.2720 O   0  0  0  0  0  0  0  0  0  0  0  0
   -5.9675   -3.7233   28.8329 C   0  0  0  0  0  0  0  0  0  0  0  0
   -4.9023   -2.9323   27.8827 O   0  0  0  0  0  0  0  0  0  0  0  0
   -3.3224   -2.2077   27.9954 C   0  0  0  0  0  0  0  0  0  0  0  0
   -2.5339   -0.8783   28.2451 C   0  0  0  0  0  0  0  0  0  0  0  0
   -1.8467   -0.6825   29.4707 C   0  0  0  0  0  0  0  0  0  0  0  0
   -0.9543    0.3823   29.6388 C   0  0  0  0  0  0  0  0  0  0  0  0
   -0.8031    1.2684   28.5938 C   0  0  0  0  0  0  0  0  0  0  0  0
   -1.4543    1.0959   27.4010 C   0  0  0  0  0  0  0  0  0  0  0  0
   -2.2762    0.0165   27.1837 C   0  0  0  0  0  0  0  0  0  0  0  0
   -1.1721    2.0776   26.5037 O   0  0  0  0  0  0  0  0  0  0  0  0
   -0.4189    2.9772   27.3390 C   0  0  0  0  0  0  0  0  0  0  0  0
   -0.0393    2.3941   28.6045 O   0  0  0  0  0  0  0  0  0  0  0  0
  -11.3094   -3.5811   27.6075 H   0  0  0  0  0  0  0  0  0  0  0  0
  -11.0448   -2.3591   26.3465 H   0  0  0  0  0  0  0  0  0  0  0  0
  -10.2866   -2.1769   27.9078 H   0  0  0  0  0  0  0  0  0  0  0  0
   -9.1053   -5.3758   25.3820 H   0  0  0  0  0  0  0  0  0  0  0  0
  -10.6700   -5.3274   26.1701 H   0  0  0  0  0  0  0  0  0  0  0  0
   -9.4749   -2.2582   23.7983 H   0  0  0  0  0  0  0  0  0  0  0  0
  -11.1241   -2.4113   21.6149 H   0  0  0  0  0  0  0  0  0  0  0  0
  -12.4324   -4.5854   21.9467 H   0  0  0  0  0  0  0  0  0  0  0  0
   -9.3945   -4.6805   28.5314 H   0  0  0  0  0  0  0  0  0  0  0  0
   -8.1188   -5.2218   27.5216 H   0  0  0  0  0  0  0  0  0  0  0  0
   -8.0014   -3.4580   29.6796 H   0  0  0  0  0  0  0  0  0  0  0  0
   -8.1083   -2.0517   27.3053 H   0  0  0  0  0  0  0  0  0  0  0  0
   -5.7210   -3.6181   29.9006 H   0  0  0  0  0  0  0  0  0  0  0  0
   -5.9984   -4.7938   28.6831 H   0  0  0  0  0  0  0  0  0  0  0  0
   -3.0819   -2.2552   26.9211 H   0  0  0  0  0  0  0  0  0  0  0  0
   -2.8124   -2.8458   28.7382 H   0  0  0  0  0  0  0  0  0  0  0  0
   -1.9754   -1.3943   30.2827 H   0  0  0  0  0  0  0  0  0  0  0  0
   -0.4155    0.5214   30.5682 H   0  0  0  0  0  0  0  0  0  0  0  0
   -2.6855   -0.1423   26.1931 H   0  0  0  0  0  0  0  0  0  0  0  0
   -1.0167    3.8779   27.5267 H   0  0  0  0  0  0  0  0  0  0  0  0
    0.4927    3.2659   26.8044 H   0  0  0  0  0  0  0  0  0  0  0  0
  1  2  1  0
  2  3  1  0
  3  4  1  0
  4  5  1  0
  5  6  2  0
  6  7  1  0
  7  8  1  0
  2  9  1  0
  9 10  1  0
 10 11  1  0
 10 12  1  0
 12 13  1  0
 13 14  1  0
 14 15  1  0
 15 16  2  0
 16 17  1  0
 17 18  2  0
 18 19  1  0
 19 20  2  0
 19 21  1  0
 21 22  1  0
 22 23  1  0
  8  4  2  0
 20 15  1  0
 23 18  1  0
  1 24  1  0
  1 25  1  0
  1 26  1  0
  3 27  1  0
  3 28  1  0
  5 29  1  0
  6 30  1  0
  7 31  1  0
  9 32  1  0
  9 33  1  0
 10 34  1  0
 11 35  1  0
 12 36  1  0
 12 37  1  0
 14 38  1  0
 14 39  1  0
 16 40  1  0
 17 41  1  0
 20 42  1  0
 22 43  1  0
 22 44  1  0
M  END
>  <Energy>  (273) 
241.61875628832186

>  <compound_id>  (273) 
19387

>  <target_id>  (273) 
1

>  <reference_id>  (273) 
13

>  <inspiration_ids>  (273) 
[13, 127]

>  <energy_score>  (273) 
90.01703457040412

>  <distance_score>  (273) 
8.506157303466477

>  <path>  (273) 
/opt/xchem-fragalysis-2/maxwin/BulkDock/SCRATCH/511020/C19387-P13/C19387-P13.minimised.mol

>  <scratch_subdir>  (273) 
/opt/xchem-fragalysis-2/maxwin/BulkDock/SCRATCH/511020/C19387-P13

>  <fragmenstein_runtime>  (273) 
7.639462232589722

>  <fragmenstein_outcome>  (273) 
too moved

>  <fragmenstein_mode>  (273) 
expansion

>  <fragmenstein_error>  (273) 


$$$$
C19387-P127
     RDKit          3D

 44 46  0  0  0  0  0  0  0  0999 V2000
   -8.2896   -1.8198   24.5513 C   0  0  0  0  0  0  0  0  0  0  0  0
   -8.7396   -0.8161   23.5014 N   0  0  0  0  0  0  0  0  0  0  0  0
  -10.2611   -1.2590   23.3220 C   0  0  0  0  0  0  0  0  0  0  0  0
  -10.6650   -2.5242   22.4853 C   0  0  0  0  0  0  0  0  0  0  0  0
  -11.6008   -2.5248   21.4059 C   0  0  0  0  0  0  0  0  0  0  0  0
  -11.6354   -3.7992   20.9116 C   0  0  0  0  0  0  0  0  0  0  0  0
  -10.7506   -4.4859   21.6836 N   0  0  0  0  0  0  0  0  0  0  0  0
  -10.2153   -3.7736   22.6916 N   0  0  0  0  0  0  0  0  0  0  0  0
   -7.9066    0.9183   23.2325 C   0  0  0  0  0  0  0  0  0  0  0  0
   -6.9699    1.0679   25.0409 C   0  0  0  0  0  0  0  0  0  0  0  0
   -5.8340    0.2860   25.0805 O   0  0  0  0  0  0  0  0  0  0  0  0
   -6.0513    2.3428   25.8698 C   0  0  0  0  0  0  0  0  0  0  0  0
   -4.6569    2.4959   25.4888 O   0  0  0  0  0  0  0  0  0  0  0  0
   -3.7546    2.3914   26.5994 C   0  0  0  0  0  0  0  0  0  0  0  0
   -2.2884    2.4285   26.2702 C   0  0  0  0  0  0  0  0  0  0  0  0
   -1.3701    2.0207   27.2744 C   0  0  0  0  0  0  0  0  0  0  0  0
    0.0009    2.2040   27.1159 C   0  0  0  0  0  0  0  0  0  0  0  0
    0.4176    2.7923   25.9465 C   0  0  0  0  0  0  0  0  0  0  0  0
   -0.4652    3.1570   24.9542 C   0  0  0  0  0  0  0  0  0  0  0  0
   -1.8232    2.9910   25.0822 C   0  0  0  0  0  0  0  0  0  0  0  0
    0.1631    3.6847   23.8718 O   0  0  0  0  0  0  0  0  0  0  0  0
    1.5266    3.7052   24.3392 C   0  0  0  0  0  0  0  0  0  0  0  0
    1.7067    3.0622   25.6156 O   0  0  0  0  0  0  0  0  0  0  0  0
   -9.0386   -2.0834   25.3112 H   0  0  0  0  0  0  0  0  0  0  0  0
   -7.4154   -1.5289   25.1184 H   0  0  0  0  0  0  0  0  0  0  0  0
   -8.1118   -2.7859   24.0638 H   0  0  0  0  0  0  0  0  0  0  0  0
  -10.7200   -1.4601   24.3000 H   0  0  0  0  0  0  0  0  0  0  0  0
  -10.7981   -0.4354   22.8964 H   0  0  0  0  0  0  0  0  0  0  0  0
  -12.1600   -1.6764   21.0741 H   0  0  0  0  0  0  0  0  0  0  0  0
  -12.1819   -4.2661   20.1082 H   0  0  0  0  0  0  0  0  0  0  0  0
  -10.4810   -5.4590   21.6081 H   0  0  0  0  0  0  0  0  0  0  0  0
   -7.0397    1.1177   22.6518 H   0  0  0  0  0  0  0  0  0  0  0  0
   -8.7136    1.6452   22.9919 H   0  0  0  0  0  0  0  0  0  0  0  0
   -7.6019    0.5837   25.7768 H   0  0  0  0  0  0  0  0  0  0  0  0
   -5.0636    0.8951   25.0659 H   0  0  0  0  0  0  0  0  0  0  0  0
   -6.5339    3.3062   25.8891 H   0  0  0  0  0  0  0  0  0  0  0  0
   -5.9868    2.0909   26.8900 H   0  0  0  0  0  0  0  0  0  0  0  0
   -3.9475    1.4553   27.1124 H   0  0  0  0  0  0  0  0  0  0  0  0
   -3.9237    3.2534   27.2400 H   0  0  0  0  0  0  0  0  0  0  0  0
   -1.7439    1.5902   28.2016 H   0  0  0  0  0  0  0  0  0  0  0  0
    0.7058    1.9104   27.8838 H   0  0  0  0  0  0  0  0  0  0  0  0
   -2.5084    3.3300   24.3116 H   0  0  0  0  0  0  0  0  0  0  0  0
    1.8562    4.7480   24.4195 H   0  0  0  0  0  0  0  0  0  0  0  0
    2.1567    3.1972   23.6006 H   0  0  0  0  0  0  0  0  0  0  0  0
  1  2  1  0
  2  3  1  0
  3  4  1  0
  4  5  1  0
  5  6  2  0
  6  7  1  0
  7  8  1  0
  2  9  1  0
  9 10  1  0
 10 11  1  0
 10 12  1  0
 12 13  1  0
 13 14  1  0
 14 15  1  0
 15 16  2  0
 16 17  1  0
 17 18  2  0
 18 19  1  0
 19 20  2  0
 19 21  1  0
 21 22  1  0
 22 23  1  0
  8  4  2  0
 20 15  1  0
 23 18  1  0
  1 24  1  0
  1 25  1  0
  1 26  1  0
  3 27  1  0
  3 28  1  0
  5 29  1  0
  6 30  1  0
  7 31  1  0
  9 32  1  0
  9 33  1  0
 10 34  1  0
 11 35  1  0
 12 36  1  0
 12 37  1  0
 14 38  1  0
 14 39  1  0
 16 40  1  0
 17 41  1  0
 20 42  1  0
 22 43  1  0
 22 44  1  0
M  END
>  <Energy>  (274) 
321.50679204252174

>  <compound_id>  (274) 
19387

>  <target_id>  (274) 
1

>  <reference_id>  (274) 
127

>  <inspiration_ids>  (274) 
[13, 127]

>  <energy_score>  (274) 
169.90507032460164

>  <distance_score>  (274) 
8.795771515766496

>  <path>  (274) 
/opt/xchem-fragalysis-2/maxwin/BulkDock/SCRATCH/511020/C19387-P127/C19387-P127.minimised.mol

>  <scratch_subdir>  (274) 
/opt/xchem-fragalysis-2/maxwin/BulkDock/SCRATCH/511020/C19387-P127

>  <fragmenstein_runtime>  (274) 
9.038862705230713

>  <fragmenstein_outcome>  (274) 
too moved

>  <fragmenstein_mode>  (274) 
expansion

>  <fragmenstein_error>  (274) 


$$$$
C17635-P13
     RDKit          3D

 42 45  0  0  0  0  0  0  0  0999 V2000
   -4.5684    3.3780   24.5730 O   0  0  0  0  0  0  0  0  0  0  0  0
   -5.0203    2.3050   24.9739 C   0  0  0  0  0  0  0  0  0  0  0  0
   -4.3977    1.9347   26.2854 C   0  0  0  0  0  0  0  0  0  0  0  0
   -3.0227    1.2867   26.0697 C   0  0  0  0  0  0  0  0  0  0  0  0
   -1.9987    1.3856   27.1646 C   0  0  0  0  0  0  0  0  0  0  0  0
   -1.4006    2.6330   27.4520 C   0  0  0  0  0  0  0  0  0  0  0  0
   -0.3354    2.7273   28.3458 C   0  0  0  0  0  0  0  0  0  0  0  0
    0.0926    1.5639   28.9406 C   0  0  0  0  0  0  0  0  0  0  0  0
   -0.4977    0.3487   28.6803 C   0  0  0  0  0  0  0  0  0  0  0  0
   -1.5394    0.2217   27.7952 C   0  0  0  0  0  0  0  0  0  0  0  0
    0.0730   -0.6671   29.3773 O   0  0  0  0  0  0  0  0  0  0  0  0
    1.1133    0.0432   30.0730 C   0  0  0  0  0  0  0  0  0  0  0  0
    1.1081    1.4643   29.8367 O   0  0  0  0  0  0  0  0  0  0  0  0
   -6.0994    1.2108   24.2055 N   0  0  0  0  0  0  0  0  0  0  0  0
   -6.8650    1.2487   22.3792 C   0  0  0  0  0  0  0  0  0  0  0  0
   -8.1091   -0.3334   22.6692 C   0  0  0  0  0  0  0  0  0  0  0  0
   -7.6326   -1.7898   21.3424 C   0  0  0  0  0  0  0  0  0  0  0  0
   -8.3481   -1.1305   19.7596 C   0  0  0  0  0  0  0  0  0  0  0  0
   -7.7668    0.6999   19.1910 C   0  0  0  0  0  0  0  0  0  0  0  0
   -8.8315   -0.4302   17.9787 C   0  0  0  0  0  0  0  0  0  0  0  0
  -10.1234   -0.1975   17.2265 C   0  0  0  0  0  0  0  0  0  0  0  0
  -11.0090   -1.1874   16.7282 C   0  0  0  0  0  0  0  0  0  0  0  0
  -10.4588   -2.2898   17.0706 N   0  0  0  0  0  0  0  0  0  0  0  0
   -9.8259   -1.7903   18.0974 N   0  0  0  0  0  0  0  0  0  0  0  0
   -6.2687    1.4895   20.3460 C   0  0  0  0  0  0  0  0  0  0  0  0
   -4.2067    2.8764   26.8058 H   0  0  0  0  0  0  0  0  0  0  0  0
   -5.1004    1.4640   26.9128 H   0  0  0  0  0  0  0  0  0  0  0  0
   -2.5467    1.7478   25.1936 H   0  0  0  0  0  0  0  0  0  0  0  0
   -3.1287    0.2359   25.8113 H   0  0  0  0  0  0  0  0  0  0  0  0
   -1.7600    3.5344   26.9553 H   0  0  0  0  0  0  0  0  0  0  0  0
    0.1248    3.6826   28.5698 H   0  0  0  0  0  0  0  0  0  0  0  0
   -1.9520   -0.7566   27.5655 H   0  0  0  0  0  0  0  0  0  0  0  0
    2.0838   -0.3605   29.7606 H   0  0  0  0  0  0  0  0  0  0  0  0
    0.9949   -0.1308   31.1487 H   0  0  0  0  0  0  0  0  0  0  0  0
   -6.3381    0.4615   24.8426 H   0  0  0  0  0  0  0  0  0  0  0  0
   -8.5098   -0.7448   23.6225 H   0  0  0  0  0  0  0  0  0  0  0  0
   -7.8502   -2.8049   21.5422 H   0  0  0  0  0  0  0  0  0  0  0  0
   -9.3704   -1.4451   19.7702 H   0  0  0  0  0  0  0  0  0  0  0  0
  -10.3375    0.8599   17.0296 H   0  0  0  0  0  0  0  0  0  0  0  0
  -11.8101   -1.0695   16.0154 H   0  0  0  0  0  0  0  0  0  0  0  0
  -10.0781   -2.3708   18.8927 H   0  0  0  0  0  0  0  0  0  0  0  0
   -5.6808    2.3355   19.9811 H   0  0  0  0  0  0  0  0  0  0  0  0
  1  2  2  0
  2  3  1  0
  3  4  1  0
  4  5  1  0
  5  6  2  0
  6  7  1  0
  7  8  2  0
  8  9  1  0
  9 10  2  0
  9 11  1  0
 11 12  1  0
 12 13  1  0
  2 14  1  0
 14 15  1  0
 15 16  2  0
 16 17  1  0
 17 18  2  0
 18 19  1  0
 19 20  1  0
 20 21  2  0
 21 22  1  0
 22 23  2  0
 23 24  1  0
 19 25  2  0
 10  5  1  0
 25 15  1  0
 13  8  1  0
 24 20  1  0
  3 26  1  0
  3 27  1  0
  4 28  1  0
  4 29  1  0
  6 30  1  0
  7 31  1  0
 10 32  1  0
 12 33  1  0
 12 34  1  0
 14 35  1  0
 16 36  1  0
 17 37  1  0
 18 38  1  0
 21 39  1  0
 22 40  1  0
 24 41  1  0
 25 42  1  0
M  END
>  <Energy>  (275) 
1414.9010609472919

>  <compound_id>  (275) 
17635

>  <target_id>  (275) 
1

>  <reference_id>  (275) 
13

>  <inspiration_ids>  (275) 
[13, 127]

>  <energy_score>  (275) 
1332.7943552303122

>  <distance_score>  (275) 
7.02310612395412

>  <path>  (275) 
/opt/xchem-fragalysis-2/maxwin/BulkDock/SCRATCH/511020/C17635-P13/C17635-P13.minimised.mol

>  <scratch_subdir>  (275) 
/opt/xchem-fragalysis-2/maxwin/BulkDock/SCRATCH/511020/C17635-P13

>  <fragmenstein_runtime>  (275) 
10.08171534538269

>  <fragmenstein_outcome>  (275) 
too moved

>  <fragmenstein_mode>  (275) 
expansion

>  <fragmenstein_error>  (275) 


$$$$
C17635-P127
     RDKit          3D

 42 45  0  0  0  0  0  0  0  0999 V2000
   -3.7417   -2.6611   24.6774 O   0  0  0  0  0  0  0  0  0  0  0  0
   -4.4733   -2.3126   25.6371 C   0  0  0  0  0  0  0  0  0  0  0  0
   -3.4715   -2.0320   27.0585 C   0  0  0  0  0  0  0  0  0  0  0  0
   -2.6830   -0.6501   27.0160 C   0  0  0  0  0  0  0  0  0  0  0  0
   -1.5919   -0.2935   27.9827 C   0  0  0  0  0  0  0  0  0  0  0  0
   -0.8404   -1.2213   28.7206 C   0  0  0  0  0  0  0  0  0  0  0  0
    0.2317   -0.7899   29.5124 C   0  0  0  0  0  0  0  0  0  0  0  0
    0.5273    0.5577   29.5291 C   0  0  0  0  0  0  0  0  0  0  0  0
   -0.1958    1.4625   28.7997 C   0  0  0  0  0  0  0  0  0  0  0  0
   -1.2553    1.0729   28.0289 C   0  0  0  0  0  0  0  0  0  0  0  0
    0.2507    2.7353   28.9290 O   0  0  0  0  0  0  0  0  0  0  0  0
    1.3479    2.5357   29.8346 C   0  0  0  0  0  0  0  0  0  0  0  0
    1.5278    1.1561   30.2274 O   0  0  0  0  0  0  0  0  0  0  0  0
   -6.4323   -2.1655   25.5096 N   0  0  0  0  0  0  0  0  0  0  0  0
   -7.5068   -2.5448   24.2690 C   0  0  0  0  0  0  0  0  0  0  0  0
   -8.4437   -1.5897   24.4997 C   0  0  0  0  0  0  0  0  0  0  0  0
  -10.0735   -1.2752   23.9464 C   0  0  0  0  0  0  0  0  0  0  0  0
  -11.0606   -2.0873   23.6304 C   0  0  0  0  0  0  0  0  0  0  0  0
  -10.3016   -2.6929   22.8210 C   0  0  0  0  0  0  0  0  0  0  0  0
  -11.0421   -2.7552   21.3980 C   0  0  0  0  0  0  0  0  0  0  0  0
  -10.6564   -2.6156   20.0769 C   0  0  0  0  0  0  0  0  0  0  0  0
  -11.7755   -2.7213   19.2563 C   0  0  0  0  0  0  0  0  0  0  0  0
  -12.8592   -2.9945   19.9592 N   0  0  0  0  0  0  0  0  0  0  0  0
  -12.3681   -3.0406   21.2296 N   0  0  0  0  0  0  0  0  0  0  0  0
   -8.6401   -2.7478   23.3958 C   0  0  0  0  0  0  0  0  0  0  0  0
   -2.6126   -2.6554   26.9304 H   0  0  0  0  0  0  0  0  0  0  0  0
   -3.9212   -2.4406   27.9300 H   0  0  0  0  0  0  0  0  0  0  0  0
   -2.2513   -0.5513   26.0244 H   0  0  0  0  0  0  0  0  0  0  0  0
   -3.3436    0.2239   27.0043 H   0  0  0  0  0  0  0  0  0  0  0  0
   -1.0630   -2.2837   28.6533 H   0  0  0  0  0  0  0  0  0  0  0  0
    0.8264   -1.4974   30.0783 H   0  0  0  0  0  0  0  0  0  0  0  0
   -1.8036    1.8155   27.4557 H   0  0  0  0  0  0  0  0  0  0  0  0
    1.1739    3.1341   30.7365 H   0  0  0  0  0  0  0  0  0  0  0  0
    2.2700    2.8846   29.3553 H   0  0  0  0  0  0  0  0  0  0  0  0
   -6.7883   -1.8122   26.3205 H   0  0  0  0  0  0  0  0  0  0  0  0
   -7.9712   -0.7543   25.0405 H   0  0  0  0  0  0  0  0  0  0  0  0
   -9.9846   -0.4677   23.1920 H   0  0  0  0  0  0  0  0  0  0  0  0
  -11.7324   -2.6374   24.2437 H   0  0  0  0  0  0  0  0  0  0  0  0
   -9.6677   -2.3881   19.7208 H   0  0  0  0  0  0  0  0  0  0  0  0
  -11.7962   -2.5810   18.1897 H   0  0  0  0  0  0  0  0  0  0  0  0
  -12.9838   -3.3127   21.9830 H   0  0  0  0  0  0  0  0  0  0  0  0
   -8.1905   -2.6959   22.3364 H   0  0  0  0  0  0  0  0  0  0  0  0
  1  2  2  0
  2  3  1  0
  3  4  1  0
  4  5  1  0
  5  6  2  0
  6  7  1  0
  7  8  2  0
  8  9  1  0
  9 10  2  0
  9 11  1  0
 11 12  1  0
 12 13  1  0
  2 14  1  0
 14 15  1  0
 15 16  2  0
 16 17  1  0
 17 18  2  0
 18 19  1  0
 19 20  1  0
 20 21  2  0
 21 22  1  0
 22 23  2  0
 23 24  1  0
 19 25  2  0
 10  5  1  0
 25 15  1  0
 13  8  1  0
 24 20  1  0
  3 26  1  0
  3 27  1  0
  4 28  1  0
  4 29  1  0
  6 30  1  0
  7 31  1  0
 10 32  1  0
 12 33  1  0
 12 34  1  0
 14 35  1  0
 16 36  1  0
 17 37  1  0
 18 38  1  0
 21 39  1  0
 22 40  1  0
 24 41  1  0
 25 42  1  0
M  END
>  <Energy>  (276) 
542.67573597500837

>  <compound_id>  (276) 
17635

>  <target_id>  (276) 
1

>  <reference_id>  (276) 
127

>  <inspiration_ids>  (276) 
[13, 127]

>  <energy_score>  (276) 
460.56903025803126

>  <distance_score>  (276) 
7.453222259577284

>  <path>  (276) 
/opt/xchem-fragalysis-2/maxwin/BulkDock/SCRATCH/511020/C17635-P127/C17635-P127.minimised.mol

>  <scratch_subdir>  (276) 
/opt/xchem-fragalysis-2/maxwin/BulkDock/SCRATCH/511020/C17635-P127

>  <fragmenstein_runtime>  (276) 
10.102033376693726

>  <fragmenstein_outcome>  (276) 
too moved

>  <fragmenstein_mode>  (276) 
expansion

>  <fragmenstein_error>  (276) 


$$$$
C19390-P13
     RDKit          3D

 40 43  0  0  0  0  0  0  0  0999 V2000
   -5.2273    0.3571   24.8936 C   0  0  0  0  0  0  0  0  0  0  0  0
   -3.9392   -1.0169   25.2556 C   0  0  0  0  0  0  0  0  0  0  0  0
   -3.0639   -1.9980   24.2534 C   0  0  0  0  0  0  0  0  0  0  0  0
   -2.3578   -0.8191   25.7187 C   0  0  0  0  0  0  0  0  0  0  0  0
   -1.9887   -1.4225   27.0753 N   0  0  0  0  0  0  0  0  0  0  0  0
   -1.0132   -0.5280   27.6875 C   0  0  0  0  0  0  0  0  0  0  0  0
   -0.7894   -0.7809   29.1438 C   0  0  0  0  0  0  0  0  0  0  0  0
    0.4294   -1.3146   29.6091 C   0  0  0  0  0  0  0  0  0  0  0  0
    0.6749   -1.4186   30.9764 C   0  0  0  0  0  0  0  0  0  0  0  0
   -0.3206   -1.0045   31.8337 C   0  0  0  0  0  0  0  0  0  0  0  0
   -1.5210   -0.5176   31.3826 C   0  0  0  0  0  0  0  0  0  0  0  0
   -1.7789   -0.3874   30.0479 C   0  0  0  0  0  0  0  0  0  0  0  0
   -2.3665   -0.1654   32.3848 O   0  0  0  0  0  0  0  0  0  0  0  0
   -1.5704   -0.5320   33.5284 C   0  0  0  0  0  0  0  0  0  0  0  0
   -0.2530   -1.0076   33.1892 O   0  0  0  0  0  0  0  0  0  0  0  0
   -3.2335   -1.5499   22.3766 C   0  0  0  0  0  0  0  0  0  0  0  0
   -4.2778    0.0002   21.8031 C   0  0  0  0  0  0  0  0  0  0  0  0
   -4.5413    1.8723   21.2361 C   0  0  0  0  0  0  0  0  0  0  0  0
   -4.0236    3.1618   21.6741 C   0  0  0  0  0  0  0  0  0  0  0  0
   -4.3773    4.0693   20.6769 C   0  0  0  0  0  0  0  0  0  0  0  0
   -5.1082    3.3620   19.7405 N   0  0  0  0  0  0  0  0  0  0  0  0
   -5.2592    2.0517   20.0606 N   0  0  0  0  0  0  0  0  0  0  0  0
   -5.7266    0.7794   23.0549 C   0  0  0  0  0  0  0  0  0  0  0  0
   -5.2996    1.1969   25.6237 H   0  0  0  0  0  0  0  0  0  0  0  0
   -4.2236   -1.9115   25.9385 H   0  0  0  0  0  0  0  0  0  0  0  0
   -2.8027    0.2160   25.9729 H   0  0  0  0  0  0  0  0  0  0  0  0
   -1.5274   -0.2393   25.3832 H   0  0  0  0  0  0  0  0  0  0  0  0
   -2.8183   -1.5531   27.6382 H   0  0  0  0  0  0  0  0  0  0  0  0
   -0.0509   -0.6004   27.1720 H   0  0  0  0  0  0  0  0  0  0  0  0
   -1.3237    0.5227   27.5973 H   0  0  0  0  0  0  0  0  0  0  0  0
    1.1921   -1.6263   28.8987 H   0  0  0  0  0  0  0  0  0  0  0  0
    1.6137   -1.8076   31.3526 H   0  0  0  0  0  0  0  0  0  0  0  0
   -2.7044    0.0484   29.7069 H   0  0  0  0  0  0  0  0  0  0  0  0
   -2.0955   -1.3172   34.0854 H   0  0  0  0  0  0  0  0  0  0  0  0
   -1.4676    0.3460   34.1764 H   0  0  0  0  0  0  0  0  0  0  0  0
   -3.4531   -2.5075   21.8723 H   0  0  0  0  0  0  0  0  0  0  0  0
   -3.4344    3.3631   22.5555 H   0  0  0  0  0  0  0  0  0  0  0  0
   -4.2073    5.1277   20.5615 H   0  0  0  0  0  0  0  0  0  0  0  0
   -5.6007    3.7124   18.9261 H   0  0  0  0  0  0  0  0  0  0  0  0
   -6.4118    0.9473   24.2216 H   0  0  0  0  0  0  0  0  0  0  0  0
  1  2  2  0
  2  3  1  0
  3  4  1  0
  4  5  1  0
  5  6  1  0
  6  7  1  0
  7  8  2  0
  8  9  1  0
  9 10  2  0
 10 11  1  0
 11 12  2  0
 11 13  1  0
 13 14  1  0
 14 15  1  0
  3 16  2  0
 16 17  1  0
 17 18  1  0
 18 19  1  0
 19 20  2  0
 20 21  1  0
 21 22  1  0
 17 23  2  0
 23  1  1  0
 12  7  1  0
 22 18  2  0
 15 10  1  0
  1 24  1  0
  2 25  1  0
  4 26  1  0
  4 27  1  0
  5 28  1  0
  6 29  1  0
  6 30  1  0
  8 31  1  0
  9 32  1  0
 12 33  1  0
 14 34  1  0
 14 35  1  0
 16 36  1  0
 19 37  1  0
 20 38  1  0
 21 39  1  0
 23 40  1  0
M  END
>  <Energy>  (277) 
1039.4698244610991

>  <compound_id>  (277) 
19390

>  <target_id>  (277) 
1

>  <reference_id>  (277) 
13

>  <inspiration_ids>  (277) 
[13, 127]

>  <energy_score>  (277) 
956.7390350352877

>  <distance_score>  (277) 
9.140596160079811

>  <path>  (277) 
/opt/xchem-fragalysis-2/maxwin/BulkDock/SCRATCH/511020/C19390-P13/C19390-P13.minimised.mol

>  <scratch_subdir>  (277) 
/opt/xchem-fragalysis-2/maxwin/BulkDock/SCRATCH/511020/C19390-P13

>  <fragmenstein_runtime>  (277) 
8.606813430786133

>  <fragmenstein_outcome>  (277) 
too moved

>  <fragmenstein_mode>  (277) 
expansion

>  <fragmenstein_error>  (277) 


$$$$
C19390-P127
     RDKit          3D

 40 43  0  0  0  0  0  0  0  0999 V2000
   -0.3613   -2.7980   20.0351 C   0  0  0  0  0  0  0  0  0  0  0  0
   -0.7700   -2.7033   21.8405 C   0  0  0  0  0  0  0  0  0  0  0  0
   -2.4431   -2.6717   22.5834 C   0  0  0  0  0  0  0  0  0  0  0  0
   -2.9340   -3.1018   24.0595 C   0  0  0  0  0  0  0  0  0  0  0  0
   -3.2840   -2.0859   25.2675 N   0  0  0  0  0  0  0  0  0  0  0  0
   -2.8422   -2.0087   26.7492 C   0  0  0  0  0  0  0  0  0  0  0  0
   -2.1978   -0.6565   27.1969 C   0  0  0  0  0  0  0  0  0  0  0  0
   -1.1255   -0.6852   28.1311 C   0  0  0  0  0  0  0  0  0  0  0  0
   -0.4684    0.4839   28.5349 C   0  0  0  0  0  0  0  0  0  0  0  0
   -0.9048    1.6750   28.0042 C   0  0  0  0  0  0  0  0  0  0  0  0
   -1.9456    1.7237   27.1142 C   0  0  0  0  0  0  0  0  0  0  0  0
   -2.6092    0.5904   26.7050 C   0  0  0  0  0  0  0  0  0  0  0  0
   -2.2180    2.9851   26.6920 O   0  0  0  0  0  0  0  0  0  0  0  0
   -1.2938    3.7387   27.4970 C   0  0  0  0  0  0  0  0  0  0  0  0
   -0.3996    2.9078   28.2719 O   0  0  0  0  0  0  0  0  0  0  0  0
   -3.6260   -3.1230   21.2512 C   0  0  0  0  0  0  0  0  0  0  0  0
   -3.3937   -3.2283   19.2967 C   0  0  0  0  0  0  0  0  0  0  0  0
   -3.9533   -4.4786   18.4680 C   0  0  0  0  0  0  0  0  0  0  0  0
   -4.7782   -5.5549   18.8926 C   0  0  0  0  0  0  0  0  0  0  0  0
   -4.9091   -6.3748   17.7958 C   0  0  0  0  0  0  0  0  0  0  0  0
   -4.1923   -5.7834   16.8007 N   0  0  0  0  0  0  0  0  0  0  0  0
   -3.6546   -4.6045   17.1593 N   0  0  0  0  0  0  0  0  0  0  0  0
   -1.6391   -3.0257   18.7250 C   0  0  0  0  0  0  0  0  0  0  0  0
    0.6842   -2.8754   19.7468 H   0  0  0  0  0  0  0  0  0  0  0  0
    0.0717   -2.8434   22.5078 H   0  0  0  0  0  0  0  0  0  0  0  0
   -3.9309   -3.3255   23.7633 H   0  0  0  0  0  0  0  0  0  0  0  0
   -2.6349   -4.1300   24.2636 H   0  0  0  0  0  0  0  0  0  0  0  0
   -2.6039   -1.3897   24.9301 H   0  0  0  0  0  0  0  0  0  0  0  0
   -2.1221   -2.7191   27.1301 H   0  0  0  0  0  0  0  0  0  0  0  0
   -3.6836   -2.2396   27.3949 H   0  0  0  0  0  0  0  0  0  0  0  0
   -0.7823   -1.6408   28.5231 H   0  0  0  0  0  0  0  0  0  0  0  0
    0.3584    0.4513   29.2337 H   0  0  0  0  0  0  0  0  0  0  0  0
   -3.4423    0.6993   26.0266 H   0  0  0  0  0  0  0  0  0  0  0  0
   -1.8617    4.3839   28.1756 H   0  0  0  0  0  0  0  0  0  0  0  0
   -0.6911    4.3718   26.8361 H   0  0  0  0  0  0  0  0  0  0  0  0
   -4.3869   -3.8612   21.6178 H   0  0  0  0  0  0  0  0  0  0  0  0
   -5.1961   -5.7118   19.8778 H   0  0  0  0  0  0  0  0  0  0  0  0
   -5.4290   -7.3103   17.6476 H   0  0  0  0  0  0  0  0  0  0  0  0
   -4.0520   -6.1098   15.8499 H   0  0  0  0  0  0  0  0  0  0  0  0
   -1.3395   -3.3139   17.7244 H   0  0  0  0  0  0  0  0  0  0  0  0
  1  2  2  0
  2  3  1  0
  3  4  1  0
  4  5  1  0
  5  6  1  0
  6  7  1  0
  7  8  2  0
  8  9  1  0
  9 10  2  0
 10 11  1  0
 11 12  2  0
 11 13  1  0
 13 14  1  0
 14 15  1  0
  3 16  2  0
 16 17  1  0
 17 18  1  0
 18 19  1  0
 19 20  2  0
 20 21  1  0
 21 22  1  0
 17 23  2  0
 23  1  1  0
 12  7  1  0
 22 18  2  0
 15 10  1  0
  1 24  1  0
  2 25  1  0
  4 26  1  0
  4 27  1  0
  5 28  1  0
  6 29  1  0
  6 30  1  0
  8 31  1  0
  9 32  1  0
 12 33  1  0
 14 34  1  0
 14 35  1  0
 16 36  1  0
 19 37  1  0
 20 38  1  0
 21 39  1  0
 23 40  1  0
M  END
>  <Energy>  (278) 
473.37470913049503

>  <compound_id>  (278) 
19390

>  <target_id>  (278) 
1

>  <reference_id>  (278) 
127

>  <inspiration_ids>  (278) 
[13, 127]

>  <energy_score>  (278) 
390.6439197046833

>  <distance_score>  (278) 
8.697417186926025

>  <path>  (278) 
/opt/xchem-fragalysis-2/maxwin/BulkDock/SCRATCH/511020/C19390-P127/C19390-P127.minimised.mol

>  <scratch_subdir>  (278) 
/opt/xchem-fragalysis-2/maxwin/BulkDock/SCRATCH/511020/C19390-P127

>  <fragmenstein_runtime>  (278) 
8.056882858276367

>  <fragmenstein_outcome>  (278) 
too moved

>  <fragmenstein_mode>  (278) 
expansion

>  <fragmenstein_error>  (278) 


$$$$
C19391-P13
     RDKit          3D

 43 46  0  0  0  0  0  0  0  0999 V2000
   -4.4023    1.5513   26.1119 O   0  0  0  0  0  0  0  0  0  0  0  0
   -3.4693    0.8691   25.7522 C   0  0  0  0  0  0  0  0  0  0  0  0
   -3.3661   -0.6619   25.5499 N   0  0  0  0  0  0  0  0  0  0  0  0
   -4.5450   -1.9655   25.8948 C   0  0  0  0  0  0  0  0  0  0  0  0
   -6.7084   -1.7162   25.6505 C   0  0  0  0  0  0  0  0  0  0  0  0
   -7.3573   -1.1988   26.4847 O   0  0  0  0  0  0  0  0  0  0  0  0
   -7.3775   -2.3454   24.4188 N   0  0  0  0  0  0  0  0  0  0  0  0
   -8.6931   -2.5324   24.0858 C   0  0  0  0  0  0  0  0  0  0  0  0
   -9.6212   -1.6535   23.5531 C   0  0  0  0  0  0  0  0  0  0  0  0
  -10.7942   -2.3382   23.4938 C   0  0  0  0  0  0  0  0  0  0  0  0
  -10.6866   -3.0550   24.6321 N   0  0  0  0  0  0  0  0  0  0  0  0
   -9.4058   -3.3332   24.9098 N   0  0  0  0  0  0  0  0  0  0  0  0
   -3.1812   -1.6625   27.3570 C   0  0  0  0  0  0  0  0  0  0  0  0
   -2.8039   -0.4781   28.0851 C   0  0  0  0  0  0  0  0  0  0  0  0
   -1.9161   -0.2534   29.2099 C   0  0  0  0  0  0  0  0  0  0  0  0
   -1.0378   -1.2052   29.6013 C   0  0  0  0  0  0  0  0  0  0  0  0
   -0.9819   -2.2295   28.7206 C   0  0  0  0  0  0  0  0  0  0  0  0
   -1.9441   -2.3234   27.6386 C   0  0  0  0  0  0  0  0  0  0  0  0
   -2.2424    1.7173   25.6079 C   0  0  0  0  0  0  0  0  0  0  0  0
   -1.0846    1.4724   26.3902 C   0  0  0  0  0  0  0  0  0  0  0  0
   -0.1001    2.4475   26.5737 C   0  0  0  0  0  0  0  0  0  0  0  0
   -0.3016    3.6577   25.9614 C   0  0  0  0  0  0  0  0  0  0  0  0
   -1.4113    3.9028   25.1875 C   0  0  0  0  0  0  0  0  0  0  0  0
   -2.3983    2.9657   24.9973 C   0  0  0  0  0  0  0  0  0  0  0  0
   -1.4258    5.1661   24.6903 O   0  0  0  0  0  0  0  0  0  0  0  0
   -0.2736    5.7218   25.3486 C   0  0  0  0  0  0  0  0  0  0  0  0
    0.5193    4.7361   26.0445 O   0  0  0  0  0  0  0  0  0  0  0  0
   -2.3967   -0.9104   25.3168 H   0  0  0  0  0  0  0  0  0  0  0  0
   -4.6003   -2.7270   26.7039 H   0  0  0  0  0  0  0  0  0  0  0  0
   -6.6699   -2.7951   23.8939 H   0  0  0  0  0  0  0  0  0  0  0  0
   -9.4632   -0.6649   23.1907 H   0  0  0  0  0  0  0  0  0  0  0  0
  -11.6942   -2.2140   22.9266 H   0  0  0  0  0  0  0  0  0  0  0  0
  -11.4025   -3.5479   25.1503 H   0  0  0  0  0  0  0  0  0  0  0  0
   -3.1162    0.5101   27.7783 H   0  0  0  0  0  0  0  0  0  0  0  0
   -1.8921    0.7270   29.6627 H   0  0  0  0  0  0  0  0  0  0  0  0
   -0.3375   -1.0761   30.4125 H   0  0  0  0  0  0  0  0  0  0  0  0
   -0.1954   -2.9769   28.7857 H   0  0  0  0  0  0  0  0  0  0  0  0
   -1.5743   -3.1249   27.0582 H   0  0  0  0  0  0  0  0  0  0  0  0
   -0.9272    0.5063   26.8550 H   0  0  0  0  0  0  0  0  0  0  0  0
    0.7725    2.2605   27.1876 H   0  0  0  0  0  0  0  0  0  0  0  0
   -3.3101    3.2304   24.4700 H   0  0  0  0  0  0  0  0  0  0  0  0
    0.3587    6.2049   24.5955 H   0  0  0  0  0  0  0  0  0  0  0  0
   -0.6049    6.4817   26.0671 H   0  0  0  0  0  0  0  0  0  0  0  0
  1  2  2  0
  2  3  1  0
  3  4  1  0
  4  5  1  0
  5  6  2  0
  5  7  1  0
  7  8  1  0
  8  9  1  0
  9 10  2  0
 10 11  1  0
 11 12  1  0
  4 13  1  0
 13 14  2  0
 14 15  1  0
 15 16  2  0
 16 17  1  0
 17 18  2  0
  2 19  1  0
 19 20  2  0
 20 21  1  0
 21 22  2  0
 22 23  1  0
 23 24  2  0
 23 25  1  0
 25 26  1  0
 26 27  1  0
 12  8  2  0
 18 13  1  0
 24 19  1  0
 27 22  1  0
  3 28  1  0
  4 29  1  0
  7 30  1  0
  9 31  1  0
 10 32  1  0
 11 33  1  0
 14 34  1  0
 15 35  1  0
 16 36  1  0
 17 37  1  0
 18 38  1  0
 20 39  1  0
 21 40  1  0
 24 41  1  0
 26 42  1  0
 26 43  1  0
M  END
>  <Energy>  (279) 
495.33938858628079

>  <compound_id>  (279) 
19391

>  <target_id>  (279) 
1

>  <reference_id>  (279) 
13

>  <inspiration_ids>  (279) 
[13, 127]

>  <energy_score>  (279) 
404.53897335037055

>  <distance_score>  (279) 
8.961809385981645

>  <path>  (279) 
/opt/xchem-fragalysis-2/maxwin/BulkDock/SCRATCH/511020/C19391-P13/C19391-P13.minimised.mol

>  <scratch_subdir>  (279) 
/opt/xchem-fragalysis-2/maxwin/BulkDock/SCRATCH/511020/C19391-P13

>  <fragmenstein_runtime>  (279) 
14.982845544815063

>  <fragmenstein_outcome>  (279) 
too moved

>  <fragmenstein_mode>  (279) 
expansion

>  <fragmenstein_error>  (279) 


$$$$
C19391-P127
     RDKit          3D

 43 46  0  0  0  0  0  0  0  0999 V2000
   -2.1998   -3.4233   29.4042 O   0  0  0  0  0  0  0  0  0  0  0  0
   -1.7873   -2.9613   28.3635 C   0  0  0  0  0  0  0  0  0  0  0  0
   -2.5305   -2.5032   27.1258 N   0  0  0  0  0  0  0  0  0  0  0  0
   -4.0655   -2.3794   26.8378 C   0  0  0  0  0  0  0  0  0  0  0  0
   -5.8964   -2.4679   25.7378 C   0  0  0  0  0  0  0  0  0  0  0  0
   -5.8778   -2.8950   24.5950 O   0  0  0  0  0  0  0  0  0  0  0  0
   -7.5312   -2.0546   26.4774 N   0  0  0  0  0  0  0  0  0  0  0  0
   -8.8235   -2.1913   25.9968 C   0  0  0  0  0  0  0  0  0  0  0  0
   -9.1887   -2.4811   24.6565 C   0  0  0  0  0  0  0  0  0  0  0  0
  -10.5568   -2.5235   24.6145 C   0  0  0  0  0  0  0  0  0  0  0  0
  -10.9425   -2.2899   25.8926 N   0  0  0  0  0  0  0  0  0  0  0  0
   -9.9205   -2.0655   26.7474 N   0  0  0  0  0  0  0  0  0  0  0  0
   -3.1306   -0.7070   27.3468 C   0  0  0  0  0  0  0  0  0  0  0  0
   -3.0022    0.4053   26.4812 C   0  0  0  0  0  0  0  0  0  0  0  0
   -2.2652    1.5709   26.7605 C   0  0  0  0  0  0  0  0  0  0  0  0
   -1.5784    1.6935   27.9522 C   0  0  0  0  0  0  0  0  0  0  0  0
   -1.7014    0.6860   28.8927 C   0  0  0  0  0  0  0  0  0  0  0  0
   -2.4893   -0.4488   28.6306 C   0  0  0  0  0  0  0  0  0  0  0  0
   -0.2914   -2.7239   28.3885 C   0  0  0  0  0  0  0  0  0  0  0  0
    0.5523   -3.5208   29.1840 C   0  0  0  0  0  0  0  0  0  0  0  0
    1.8778   -3.1280   29.4431 C   0  0  0  0  0  0  0  0  0  0  0  0
    2.3194   -1.9280   28.9233 C   0  0  0  0  0  0  0  0  0  0  0  0
    1.5080   -1.1488   28.1539 C   0  0  0  0  0  0  0  0  0  0  0  0
    0.2242   -1.5278   27.8740 C   0  0  0  0  0  0  0  0  0  0  0  0
    2.0873    0.0092   27.7495 O   0  0  0  0  0  0  0  0  0  0  0  0
    3.3837   -0.1304   28.3526 C   0  0  0  0  0  0  0  0  0  0  0  0
    3.5374   -1.3562   29.1053 O   0  0  0  0  0  0  0  0  0  0  0  0
   -1.8735   -2.0919   26.4746 H   0  0  0  0  0  0  0  0  0  0  0  0
   -4.4311   -2.7981   27.7832 H   0  0  0  0  0  0  0  0  0  0  0  0
   -7.3882   -1.8012   27.4428 H   0  0  0  0  0  0  0  0  0  0  0  0
   -8.5291   -2.6033   23.8248 H   0  0  0  0  0  0  0  0  0  0  0  0
  -11.2573   -2.6676   23.8062 H   0  0  0  0  0  0  0  0  0  0  0  0
  -11.8841   -2.2565   26.2650 H   0  0  0  0  0  0  0  0  0  0  0  0
   -3.6312    0.4692   25.6321 H   0  0  0  0  0  0  0  0  0  0  0  0
   -2.2717    2.3948   26.0513 H   0  0  0  0  0  0  0  0  0  0  0  0
   -0.9981    2.5851   28.1689 H   0  0  0  0  0  0  0  0  0  0  0  0
   -1.1740    0.7511   29.8398 H   0  0  0  0  0  0  0  0  0  0  0  0
   -2.5800   -1.1230   29.4744 H   0  0  0  0  0  0  0  0  0  0  0  0
    0.1575   -4.4253   29.6415 H   0  0  0  0  0  0  0  0  0  0  0  0
    2.5238   -3.7331   30.0694 H   0  0  0  0  0  0  0  0  0  0  0  0
   -0.3692   -0.8534   27.2783 H   0  0  0  0  0  0  0  0  0  0  0  0
    4.1449   -0.1080   27.5641 H   0  0  0  0  0  0  0  0  0  0  0  0
    3.5526    0.7163   29.0280 H   0  0  0  0  0  0  0  0  0  0  0  0
  1  2  2  0
  2  3  1  0
  3  4  1  0
  4  5  1  0
  5  6  2  0
  5  7  1  0
  7  8  1  0
  8  9  1  0
  9 10  2  0
 10 11  1  0
 11 12  1  0
  4 13  1  0
 13 14  2  0
 14 15  1  0
 15 16  2  0
 16 17  1  0
 17 18  2  0
  2 19  1  0
 19 20  2  0
 20 21  1  0
 21 22  2  0
 22 23  1  0
 23 24  2  0
 23 25  1  0
 25 26  1  0
 26 27  1  0
 12  8  2  0
 18 13  1  0
 24 19  1  0
 27 22  1  0
  3 28  1  0
  4 29  1  0
  7 30  1  0
  9 31  1  0
 10 32  1  0
 11 33  1  0
 14 34  1  0
 15 35  1  0
 16 36  1  0
 17 37  1  0
 18 38  1  0
 20 39  1  0
 21 40  1  0
 24 41  1  0
 26 42  1  0
 26 43  1  0
M  END
>  <Energy>  (280) 
371.07674454850564

>  <compound_id>  (280) 
19391

>  <target_id>  (280) 
1

>  <reference_id>  (280) 
127

>  <inspiration_ids>  (280) 
[13, 127]

>  <energy_score>  (280) 
280.276329312597

>  <distance_score>  (280) 
9.562739442698518

>  <path>  (280) 
/opt/xchem-fragalysis-2/maxwin/BulkDock/SCRATCH/511020/C19391-P127/C19391-P127.minimised.mol

>  <scratch_subdir>  (280) 
/opt/xchem-fragalysis-2/maxwin/BulkDock/SCRATCH/511020/C19391-P127

>  <fragmenstein_runtime>  (280) 
9.612221956253052

>  <fragmenstein_outcome>  (280) 
too moved

>  <fragmenstein_mode>  (280) 
expansion

>  <fragmenstein_error>  (280) 


$$$$
C19394-P13
     RDKit          3D

 41 44  0  0  0  0  0  0  0  0999 V2000
   -7.9391   -1.1819   26.8732 O   0  0  0  0  0  0  0  0  0  0  0  0
   -7.4257   -1.6815   25.8946 C   0  0  0  0  0  0  0  0  0  0  0  0
   -5.7455   -2.2167   25.6091 N   0  0  0  0  0  0  0  0  0  0  0  0
   -4.2453   -2.3041   26.7585 C   0  0  0  0  0  0  0  0  0  0  0  0
   -2.9242   -1.2596   27.2196 C   0  0  0  0  0  0  0  0  0  0  0  0
   -2.0954   -1.6288   28.3192 C   0  0  0  0  0  0  0  0  0  0  0  0
   -1.0760   -0.7901   28.8033 C   0  0  0  0  0  0  0  0  0  0  0  0
   -0.8882    0.4219   28.1831 C   0  0  0  0  0  0  0  0  0  0  0  0
   -1.6326    0.7826   27.0939 C   0  0  0  0  0  0  0  0  0  0  0  0
   -2.6169   -0.0336   26.5798 C   0  0  0  0  0  0  0  0  0  0  0  0
   -1.3080    2.0152   26.6194 O   0  0  0  0  0  0  0  0  0  0  0  0
   -0.3645    2.4380   27.6191 C   0  0  0  0  0  0  0  0  0  0  0  0
   -0.0071    1.3908   28.5491 O   0  0  0  0  0  0  0  0  0  0  0  0
   -8.0636   -2.1560   24.5139 N   0  0  0  0  0  0  0  0  0  0  0  0
   -9.4738   -2.1356   24.0286 C   0  0  0  0  0  0  0  0  0  0  0  0
  -10.8231   -1.9758   24.0480 C   0  0  0  0  0  0  0  0  0  0  0  0
  -11.8468   -2.4161   22.9316 C   0  0  0  0  0  0  0  0  0  0  0  0
  -11.6900   -2.7590   21.6747 C   0  0  0  0  0  0  0  0  0  0  0  0
  -12.1183   -2.9954   20.3261 C   0  0  0  0  0  0  0  0  0  0  0  0
  -11.1894   -3.4725   19.3321 C   0  0  0  0  0  0  0  0  0  0  0  0
  -11.0970   -2.5122   18.3639 C   0  0  0  0  0  0  0  0  0  0  0  0
  -12.1138   -1.7154   18.7002 N   0  0  0  0  0  0  0  0  0  0  0  0
  -12.9457   -2.2438   19.6416 N   0  0  0  0  0  0  0  0  0  0  0  0
  -10.4516   -2.5051   21.6874 C   0  0  0  0  0  0  0  0  0  0  0  0
   -9.4379   -2.4235   22.7899 C   0  0  0  0  0  0  0  0  0  0  0  0
   -5.6766   -2.6701   24.6989 H   0  0  0  0  0  0  0  0  0  0  0  0
   -4.6162   -2.8543   27.6216 H   0  0  0  0  0  0  0  0  0  0  0  0
   -3.5191   -2.6755   26.0304 H   0  0  0  0  0  0  0  0  0  0  0  0
   -2.2568   -2.5691   28.8355 H   0  0  0  0  0  0  0  0  0  0  0  0
   -0.4728   -1.0808   29.6543 H   0  0  0  0  0  0  0  0  0  0  0  0
   -3.1887    0.3477   25.7512 H   0  0  0  0  0  0  0  0  0  0  0  0
   -0.7908    3.2787   28.1797 H   0  0  0  0  0  0  0  0  0  0  0  0
    0.5474    2.7787   27.1160 H   0  0  0  0  0  0  0  0  0  0  0  0
   -7.3674   -2.5998   23.9609 H   0  0  0  0  0  0  0  0  0  0  0  0
  -11.3221   -1.4660   24.8444 H   0  0  0  0  0  0  0  0  0  0  0  0
  -12.8448   -2.1951   23.0854 H   0  0  0  0  0  0  0  0  0  0  0  0
  -10.4276   -4.2118   19.5225 H   0  0  0  0  0  0  0  0  0  0  0  0
  -10.4744   -2.3127   17.5076 H   0  0  0  0  0  0  0  0  0  0  0  0
  -12.5568   -1.0684   18.0741 H   0  0  0  0  0  0  0  0  0  0  0  0
  -10.0000   -2.4641   20.6876 H   0  0  0  0  0  0  0  0  0  0  0  0
   -8.4347   -2.4677   22.3792 H   0  0  0  0  0  0  0  0  0  0  0  0
  1  2  2  0
  2  3  1  0
  3  4  1  0
  4  5  1  0
  5  6  2  0
  6  7  1  0
  7  8  2  0
  8  9  1  0
  9 10  2  0
  9 11  1  0
 11 12  1  0
 12 13  1  0
  2 14  1  0
 14 15  1  0
 15 16  2  0
 16 17  1  0
 17 18  2  0
 18 19  1  0
 19 20  1  0
 20 21  2  0
 21 22  1  0
 22 23  1  0
 18 24  1  0
 24 25  2  0
 10  5  1  0
 25 15  1  0
 13  8  1  0
 23 19  2  0
  3 26  1  0
  4 27  1  0
  4 28  1  0
  6 29  1  0
  7 30  1  0
 10 31  1  0
 12 32  1  0
 12 33  1  0
 14 34  1  0
 16 35  1  0
 17 36  1  0
 20 37  1  0
 21 38  1  0
 22 39  1  0
 24 40  1  0
 25 41  1  0
M  END
>  <Energy>  (281) 
310.5518705925146

>  <compound_id>  (281) 
19394

>  <target_id>  (281) 
1

>  <reference_id>  (281) 
13

>  <inspiration_ids>  (281) 
[13, 127]

>  <energy_score>  (281) 
303.5093948706784

>  <distance_score>  (281) 
7.4541999412855

>  <path>  (281) 
/opt/xchem-fragalysis-2/maxwin/BulkDock/SCRATCH/511020/C19394-P13/C19394-P13.minimised.mol

>  <scratch_subdir>  (281) 
/opt/xchem-fragalysis-2/maxwin/BulkDock/SCRATCH/511020/C19394-P13

>  <fragmenstein_runtime>  (281) 
17.486639738082886

>  <fragmenstein_outcome>  (281) 
too moved

>  <fragmenstein_mode>  (281) 
expansion

>  <fragmenstein_error>  (281) 


$$$$
C19394-P127
     RDKit          3D

 41 44  0  0  0  0  0  0  0  0999 V2000
   -3.3242    5.4875   19.1691 O   0  0  0  0  0  0  0  0  0  0  0  0
   -3.6903    4.8821   20.1104 C   0  0  0  0  0  0  0  0  0  0  0  0
   -3.2641    4.9631   21.5435 N   0  0  0  0  0  0  0  0  0  0  0  0
   -2.2220    5.7289   22.1721 C   0  0  0  0  0  0  0  0  0  0  0  0
   -1.7880    4.9390   23.4205 C   0  0  0  0  0  0  0  0  0  0  0  0
   -2.7344    4.6731   24.4465 C   0  0  0  0  0  0  0  0  0  0  0  0
   -2.4186    3.9132   25.5802 C   0  0  0  0  0  0  0  0  0  0  0  0
   -1.1340    3.4565   25.6962 C   0  0  0  0  0  0  0  0  0  0  0  0
   -0.2013    3.6909   24.7137 C   0  0  0  0  0  0  0  0  0  0  0  0
   -0.4965    4.4059   23.5617 C   0  0  0  0  0  0  0  0  0  0  0  0
    1.0072    3.1506   25.0357 O   0  0  0  0  0  0  0  0  0  0  0  0
    0.7673    2.7720   26.4100 C   0  0  0  0  0  0  0  0  0  0  0  0
   -0.6284    2.7646   26.7498 O   0  0  0  0  0  0  0  0  0  0  0  0
   -4.6252    3.7566   20.2161 N   0  0  0  0  0  0  0  0  0  0  0  0
   -5.2744    3.0204   19.2442 C   0  0  0  0  0  0  0  0  0  0  0  0
   -5.8886    3.0082   18.0976 C   0  0  0  0  0  0  0  0  0  0  0  0
   -6.6701    1.5492   17.7156 C   0  0  0  0  0  0  0  0  0  0  0  0
   -7.9401    0.9091   18.0542 C   0  0  0  0  0  0  0  0  0  0  0  0
   -9.7827    0.9929   17.2836 C   0  0  0  0  0  0  0  0  0  0  0  0
  -11.0730    1.7712   16.0591 C   0  0  0  0  0  0  0  0  0  0  0  0
  -11.7210    0.6601   15.3096 C   0  0  0  0  0  0  0  0  0  0  0  0
  -11.2807   -0.5917   15.8576 N   0  0  0  0  0  0  0  0  0  0  0  0
  -10.1862   -0.5406   17.0720 N   0  0  0  0  0  0  0  0  0  0  0  0
   -7.2840    1.3525   19.1722 C   0  0  0  0  0  0  0  0  0  0  0  0
   -5.7886    1.8910   19.7202 C   0  0  0  0  0  0  0  0  0  0  0  0
   -3.7240    4.2442   22.0683 H   0  0  0  0  0  0  0  0  0  0  0  0
   -2.6207    6.7063   22.4591 H   0  0  0  0  0  0  0  0  0  0  0  0
   -1.3978    5.8662   21.4663 H   0  0  0  0  0  0  0  0  0  0  0  0
   -3.7444    5.0709   24.3615 H   0  0  0  0  0  0  0  0  0  0  0  0
   -3.1542    3.7199   26.3538 H   0  0  0  0  0  0  0  0  0  0  0  0
    0.2650    4.5638   22.8052 H   0  0  0  0  0  0  0  0  0  0  0  0
    1.2912    3.4789   27.0666 H   0  0  0  0  0  0  0  0  0  0  0  0
    1.1818    1.7757   26.5867 H   0  0  0  0  0  0  0  0  0  0  0  0
   -4.7713    3.5374   21.1828 H   0  0  0  0  0  0  0  0  0  0  0  0
   -6.3351    3.9598   17.8154 H   0  0  0  0  0  0  0  0  0  0  0  0
   -5.7483    0.9211   17.8336 H   0  0  0  0  0  0  0  0  0  0  0  0
  -10.9542    2.5993   15.4012 H   0  0  0  0  0  0  0  0  0  0  0  0
  -12.3666    0.6618   14.4434 H   0  0  0  0  0  0  0  0  0  0  0  0
  -11.6395   -1.5133   15.6541 H   0  0  0  0  0  0  0  0  0  0  0  0
   -7.6172    2.3443   19.5301 H   0  0  0  0  0  0  0  0  0  0  0  0
   -5.4755    1.7286   20.7234 H   0  0  0  0  0  0  0  0  0  0  0  0
  1  2  2  0
  2  3  1  0
  3  4  1  0
  4  5  1  0
  5  6  2  0
  6  7  1  0
  7  8  2  0
  8  9  1  0
  9 10  2  0
  9 11  1  0
 11 12  1  0
 12 13  1  0
  2 14  1  0
 14 15  1  0
 15 16  2  0
 16 17  1  0
 17 18  2  0
 18 19  1  0
 19 20  1  0
 20 21  2  0
 21 22  1  0
 22 23  1  0
 18 24  1  0
 24 25  2  0
 10  5  1  0
 25 15  1  0
 13  8  1  0
 23 19  2  0
  3 26  1  0
  4 27  1  0
  4 28  1  0
  6 29  1  0
  7 30  1  0
 10 31  1  0
 12 32  1  0
 12 33  1  0
 14 34  1  0
 16 35  1  0
 17 36  1  0
 20 37  1  0
 21 38  1  0
 22 39  1  0
 24 40  1  0
 25 41  1  0
M  END
>  <Energy>  (282) 
537.17468394333275

>  <compound_id>  (282) 
19394

>  <target_id>  (282) 
1

>  <reference_id>  (282) 
127

>  <inspiration_ids>  (282) 
[13, 127]

>  <energy_score>  (282) 
530.1322082215006

>  <distance_score>  (282) 
8.678684733414839

>  <path>  (282) 
/opt/xchem-fragalysis-2/maxwin/BulkDock/SCRATCH/511020/C19394-P127/C19394-P127.minimised.mol

>  <scratch_subdir>  (282) 
/opt/xchem-fragalysis-2/maxwin/BulkDock/SCRATCH/511020/C19394-P127

>  <fragmenstein_runtime>  (282) 
12.102458238601685

>  <fragmenstein_outcome>  (282) 
too moved

>  <fragmenstein_mode>  (282) 
expansion

>  <fragmenstein_error>  (282) 


$$$$
C19395-P13
     RDKit          3D

 41 44  0  0  0  0  0  0  0  0999 V2000
   -3.8392   -2.0319   24.8358 O   0  0  0  0  0  0  0  0  0  0  0  0
   -4.5907   -2.0642   25.7373 C   0  0  0  0  0  0  0  0  0  0  0  0
   -4.0302   -2.1202   27.3150 N   0  0  0  0  0  0  0  0  0  0  0  0
   -2.6138   -2.0302   27.8978 C   0  0  0  0  0  0  0  0  0  0  0  0
   -2.0186   -0.6337   28.0282 C   0  0  0  0  0  0  0  0  0  0  0  0
   -1.1511   -0.3384   29.1074 C   0  0  0  0  0  0  0  0  0  0  0  0
   -0.4788    0.8868   29.1810 C   0  0  0  0  0  0  0  0  0  0  0  0
   -0.7148    1.8078   28.1840 C   0  0  0  0  0  0  0  0  0  0  0  0
   -1.5326    1.5250   27.1209 C   0  0  0  0  0  0  0  0  0  0  0  0
   -2.1578    0.3083   26.9987 C   0  0  0  0  0  0  0  0  0  0  0  0
   -1.6144    2.5534   26.2361 O   0  0  0  0  0  0  0  0  0  0  0  0
   -0.9231    3.5791   26.9738 C   0  0  0  0  0  0  0  0  0  0  0  0
   -0.1990    3.0641   28.1143 O   0  0  0  0  0  0  0  0  0  0  0  0
   -6.5672   -1.9247   25.6451 N   0  0  0  0  0  0  0  0  0  0  0  0
   -7.6353   -1.8658   24.3371 C   0  0  0  0  0  0  0  0  0  0  0  0
   -8.7055   -1.0827   24.2926 C   0  0  0  0  0  0  0  0  0  0  0  0
  -10.3265   -1.1865   24.0921 C   0  0  0  0  0  0  0  0  0  0  0  0
  -10.8068   -1.3981   22.9400 C   0  0  0  0  0  0  0  0  0  0  0  0
  -10.2333   -2.5324   22.8111 C   0  0  0  0  0  0  0  0  0  0  0  0
  -10.9702   -2.9091   21.4418 C   0  0  0  0  0  0  0  0  0  0  0  0
  -10.5927   -2.5821   20.1213 C   0  0  0  0  0  0  0  0  0  0  0  0
  -11.6022   -2.8514   19.2823 C   0  0  0  0  0  0  0  0  0  0  0  0
  -12.5637   -3.2901   20.0957 N   0  0  0  0  0  0  0  0  0  0  0  0
  -12.2378   -3.3301   21.3840 N   0  0  0  0  0  0  0  0  0  0  0  0
   -8.6399   -2.6401   23.5773 C   0  0  0  0  0  0  0  0  0  0  0  0
   -4.7953   -2.2313   27.9055 H   0  0  0  0  0  0  0  0  0  0  0  0
   -2.5746   -2.5285   28.8735 H   0  0  0  0  0  0  0  0  0  0  0  0
   -1.8986   -2.4683   27.2081 H   0  0  0  0  0  0  0  0  0  0  0  0
   -0.9752   -1.0838   29.8794 H   0  0  0  0  0  0  0  0  0  0  0  0
    0.1911    1.1146   30.0011 H   0  0  0  0  0  0  0  0  0  0  0  0
   -2.7220    0.0853   26.1033 H   0  0  0  0  0  0  0  0  0  0  0  0
   -1.6491    4.3254   27.3198 H   0  0  0  0  0  0  0  0  0  0  0  0
   -0.2081    4.0680   26.3032 H   0  0  0  0  0  0  0  0  0  0  0  0
   -7.0062   -2.0687   26.5579 H   0  0  0  0  0  0  0  0  0  0  0  0
   -8.6017   -0.4096   23.3982 H   0  0  0  0  0  0  0  0  0  0  0  0
  -11.0322   -0.8783   24.8480 H   0  0  0  0  0  0  0  0  0  0  0  0
  -11.6147   -1.0635   22.3365 H   0  0  0  0  0  0  0  0  0  0  0  0
   -9.7331   -2.0728   19.7654 H   0  0  0  0  0  0  0  0  0  0  0  0
  -11.6041   -2.6781   18.2262 H   0  0  0  0  0  0  0  0  0  0  0  0
  -13.5047   -3.5617   19.8627 H   0  0  0  0  0  0  0  0  0  0  0  0
   -8.2278   -2.5614   22.5169 H   0  0  0  0  0  0  0  0  0  0  0  0
  1  2  2  0
  2  3  1  0
  3  4  1  0
  4  5  1  0
  5  6  2  0
  6  7  1  0
  7  8  2  0
  8  9  1  0
  9 10  2  0
  9 11  1  0
 11 12  1  0
 12 13  1  0
  2 14  1  0
 14 15  1  0
 15 16  2  0
 16 17  1  0
 17 18  2  0
 18 19  1  0
 19 20  1  0
 20 21  1  0
 21 22  2  0
 22 23  1  0
 23 24  1  0
 19 25  2  0
 10  5  1  0
 25 15  1  0
 13  8  1  0
 24 20  2  0
  3 26  1  0
  4 27  1  0
  4 28  1  0
  6 29  1  0
  7 30  1  0
 10 31  1  0
 12 32  1  0
 12 33  1  0
 14 34  1  0
 16 35  1  0
 17 36  1  0
 18 37  1  0
 21 38  1  0
 22 39  1  0
 23 40  1  0
 25 41  1  0
M  END
>  <Energy>  (283) 
483.09035985403017

>  <compound_id>  (283) 
19395

>  <target_id>  (283) 
1

>  <reference_id>  (283) 
13

>  <inspiration_ids>  (283) 
[13, 127]

>  <energy_score>  (283) 
464.4834202191229

>  <distance_score>  (283) 
7.246220322801132

>  <path>  (283) 
/opt/xchem-fragalysis-2/maxwin/BulkDock/SCRATCH/511020/C19395-P13/C19395-P13.minimised.mol

>  <scratch_subdir>  (283) 
/opt/xchem-fragalysis-2/maxwin/BulkDock/SCRATCH/511020/C19395-P13

>  <fragmenstein_runtime>  (283) 
12.561219215393066

>  <fragmenstein_outcome>  (283) 
too moved

>  <fragmenstein_mode>  (283) 
expansion

>  <fragmenstein_error>  (283) 


$$$$
C19395-P127
     RDKit          3D

 41 44  0  0  0  0  0  0  0  0999 V2000
   -3.8167   -0.9691   25.0277 O   0  0  0  0  0  0  0  0  0  0  0  0
   -3.5048   -1.7037   24.3486 C   0  0  0  0  0  0  0  0  0  0  0  0
   -3.0237   -2.7462   25.0330 N   0  0  0  0  0  0  0  0  0  0  0  0
   -2.7764   -2.9682   26.4846 C   0  0  0  0  0  0  0  0  0  0  0  0
   -2.2258   -1.5117   27.4206 C   0  0  0  0  0  0  0  0  0  0  0  0
   -1.7634   -1.7635   28.7575 C   0  0  0  0  0  0  0  0  0  0  0  0
   -1.1044   -0.7819   29.5147 C   0  0  0  0  0  0  0  0  0  0  0  0
   -0.9154    0.4520   28.9381 C   0  0  0  0  0  0  0  0  0  0  0  0
   -1.3936    0.7308   27.6884 C   0  0  0  0  0  0  0  0  0  0  0  0
   -2.0549   -0.2100   26.9297 C   0  0  0  0  0  0  0  0  0  0  0  0
   -1.0915    1.9906   27.2725 O   0  0  0  0  0  0  0  0  0  0  0  0
   -0.3944    2.4886   28.4259 C   0  0  0  0  0  0  0  0  0  0  0  0
   -0.2486    1.5066   29.4791 O   0  0  0  0  0  0  0  0  0  0  0  0
   -3.6901   -0.9226   22.3608 N   0  0  0  0  0  0  0  0  0  0  0  0
   -4.3871    0.9723   21.8364 C   0  0  0  0  0  0  0  0  0  0  0  0
   -6.2392    0.9462   22.6865 C   0  0  0  0  0  0  0  0  0  0  0  0
   -7.9333   -0.2259   22.6120 C   0  0  0  0  0  0  0  0  0  0  0  0
   -7.5520   -1.1775   20.7946 C   0  0  0  0  0  0  0  0  0  0  0  0
   -6.6287    0.3840   19.6813 C   0  0  0  0  0  0  0  0  0  0  0  0
   -7.8462    0.4767   18.6098 C   0  0  0  0  0  0  0  0  0  0  0  0
   -8.7744    0.7551   17.8027 C   0  0  0  0  0  0  0  0  0  0  0  0
   -9.7419   -0.5866   17.3892 C   0  0  0  0  0  0  0  0  0  0  0  0
   -9.3943   -1.3614   18.3298 N   0  0  0  0  0  0  0  0  0  0  0  0
   -8.3710   -0.7754   18.7567 N   0  0  0  0  0  0  0  0  0  0  0  0
   -5.2860    1.4133   20.2906 C   0  0  0  0  0  0  0  0  0  0  0  0
   -2.8275   -3.4438   24.3357 H   0  0  0  0  0  0  0  0  0  0  0  0
   -1.9255   -3.3008   27.1706 H   0  0  0  0  0  0  0  0  0  0  0  0
   -3.7827   -2.7362   26.8958 H   0  0  0  0  0  0  0  0  0  0  0  0
   -1.8812   -2.7572   29.1841 H   0  0  0  0  0  0  0  0  0  0  0  0
   -0.7263   -0.9999   30.5055 H   0  0  0  0  0  0  0  0  0  0  0  0
   -2.3503    0.1104   25.9549 H   0  0  0  0  0  0  0  0  0  0  0  0
   -0.9348    3.3560   28.8191 H   0  0  0  0  0  0  0  0  0  0  0  0
    0.6060    2.8133   28.1172 H   0  0  0  0  0  0  0  0  0  0  0  0
   -3.4769   -1.6576   21.6881 H   0  0  0  0  0  0  0  0  0  0  0  0
   -6.6053    1.7013   22.0738 H   0  0  0  0  0  0  0  0  0  0  0  0
   -8.5049   -0.7840   23.4057 H   0  0  0  0  0  0  0  0  0  0  0  0
   -7.9448   -2.1785   20.4676 H   0  0  0  0  0  0  0  0  0  0  0  0
   -9.5105    1.4902   17.4812 H   0  0  0  0  0  0  0  0  0  0  0  0
  -10.5636   -0.7707   16.7202 H   0  0  0  0  0  0  0  0  0  0  0  0
   -9.7741   -2.1784   18.8004 H   0  0  0  0  0  0  0  0  0  0  0  0
   -5.1313    2.3909   19.8313 H   0  0  0  0  0  0  0  0  0  0  0  0
  1  2  2  0
  2  3  1  0
  3  4  1  0
  4  5  1  0
  5  6  2  0
  6  7  1  0
  7  8  2  0
  8  9  1  0
  9 10  2  0
  9 11  1  0
 11 12  1  0
 12 13  1  0
  2 14  1  0
 14 15  1  0
 15 16  2  0
 16 17  1  0
 17 18  2  0
 18 19  1  0
 19 20  1  0
 20 21  1  0
 21 22  2  0
 22 23  1  0
 23 24  1  0
 19 25  2  0
 10  5  1  0
 25 15  1  0
 13  8  1  0
 24 20  2  0
  3 26  1  0
  4 27  1  0
  4 28  1  0
  6 29  1  0
  7 30  1  0
 10 31  1  0
 12 32  1  0
 12 33  1  0
 14 34  1  0
 16 35  1  0
 17 36  1  0
 18 37  1  0
 21 38  1  0
 22 39  1  0
 23 40  1  0
 25 41  1  0
M  END
>  <Energy>  (284) 
1641.6948221024045

>  <compound_id>  (284) 
19395

>  <target_id>  (284) 
1

>  <reference_id>  (284) 
127

>  <inspiration_ids>  (284) 
[13, 127]

>  <energy_score>  (284) 
1623.0878824674974

>  <distance_score>  (284) 
6.863528318204588

>  <path>  (284) 
/opt/xchem-fragalysis-2/maxwin/BulkDock/SCRATCH/511020/C19395-P127/C19395-P127.minimised.mol

>  <scratch_subdir>  (284) 
/opt/xchem-fragalysis-2/maxwin/BulkDock/SCRATCH/511020/C19395-P127

>  <fragmenstein_runtime>  (284) 
10.264084815979004

>  <fragmenstein_outcome>  (284) 
too moved

>  <fragmenstein_mode>  (284) 
expansion

>  <fragmenstein_error>  (284) 


$$$$
C57176-P13
     RDKit          3D

 46 50  0  0  0  0  0  0  0  0999 V2000
    1.4978    5.8985   23.7951 O   0  0  0  0  0  0  0  0  0  0  0  0
    0.9157    4.9119   23.4426 C   0  0  0  0  0  0  0  0  0  0  0  0
    0.6177    4.4144   22.1212 N   0  0  0  0  0  0  0  0  0  0  0  0
    0.8355    4.9758   20.8602 C   0  0  0  0  0  0  0  0  0  0  0  0
    1.2717    6.2868   20.7391 C   0  0  0  0  0  0  0  0  0  0  0  0
    1.4118    6.8609   19.4725 C   0  0  0  0  0  0  0  0  0  0  0  0
    1.1054    6.1302   18.3184 C   0  0  0  0  0  0  0  0  0  0  0  0
    0.6629    4.8063   18.4059 C   0  0  0  0  0  0  0  0  0  0  0  0
    0.3754    4.0228   17.1698 C   0  0  0  0  0  0  0  0  0  0  0  0
    0.6547    2.7035   17.1408 N   0  0  0  0  0  0  0  0  0  0  0  0
    0.3613    2.2989   15.8955 N   0  0  0  0  0  0  0  0  0  0  0  0
   -0.0943    3.2894   15.0916 C   0  0  0  0  0  0  0  0  0  0  0  0
   -0.1512    4.4190   15.8815 C   0  0  0  0  0  0  0  0  0  0  0  0
   -0.6614    5.6962   15.3089 C   0  0  0  0  0  0  0  0  0  0  0  0
   -0.4110    5.7454   13.7887 C   0  0  0  0  0  0  0  0  0  0  0  0
   -0.8973    4.4932   13.0543 C   0  0  0  0  0  0  0  0  0  0  0  0
   -0.3743    3.1730   13.6391 C   0  0  0  0  0  0  0  0  0  0  0  0
    0.5762    4.2345   19.6976 C   0  0  0  0  0  0  0  0  0  0  0  0
    0.4097    4.0411   24.5469 C   0  0  0  0  0  0  0  0  0  0  0  0
    1.2476    3.8222   25.6680 C   0  0  0  0  0  0  0  0  0  0  0  0
    0.8107    3.0594   26.7550 C   0  0  0  0  0  0  0  0  0  0  0  0
   -0.4611    2.5385   26.6908 C   0  0  0  0  0  0  0  0  0  0  0  0
   -1.2823    2.7609   25.6086 C   0  0  0  0  0  0  0  0  0  0  0  0
   -0.8860    3.5114   24.5216 C   0  0  0  0  0  0  0  0  0  0  0  0
   -2.4730    2.1196   25.7221 O   0  0  0  0  0  0  0  0  0  0  0  0
   -2.3284    1.5087   27.0188 C   0  0  0  0  0  0  0  0  0  0  0  0
   -1.0429    1.7502   27.6301 O   0  0  0  0  0  0  0  0  0  0  0  0
    0.1816    3.5069   22.2010 H   0  0  0  0  0  0  0  0  0  0  0  0
    1.4934    6.8967   21.6103 H   0  0  0  0  0  0  0  0  0  0  0  0
    1.7600    7.8875   19.3851 H   0  0  0  0  0  0  0  0  0  0  0  0
    1.2601    6.6043   17.3548 H   0  0  0  0  0  0  0  0  0  0  0  0
    0.5462    1.3310   15.6675 H   0  0  0  0  0  0  0  0  0  0  0  0
   -1.7354    5.7814   15.5057 H   0  0  0  0  0  0  0  0  0  0  0  0
   -0.1847    6.5646   15.7681 H   0  0  0  0  0  0  0  0  0  0  0  0
    0.6660    5.8621   13.6079 H   0  0  0  0  0  0  0  0  0  0  0  0
   -0.8982    6.6329   13.3684 H   0  0  0  0  0  0  0  0  0  0  0  0
   -0.5935    4.5753   12.0074 H   0  0  0  0  0  0  0  0  0  0  0  0
   -1.9859    4.5026   13.0632 H   0  0  0  0  0  0  0  0  0  0  0  0
   -1.0906    2.3720   13.4446 H   0  0  0  0  0  0  0  0  0  0  0  0
    0.5670    2.9225   13.1378 H   0  0  0  0  0  0  0  0  0  0  0  0
    0.3248    3.1892   19.7698 H   0  0  0  0  0  0  0  0  0  0  0  0
    2.2383    4.2744   25.6945 H   0  0  0  0  0  0  0  0  0  0  0  0
    1.4427    2.8916   27.6194 H   0  0  0  0  0  0  0  0  0  0  0  0
   -1.5786    3.7024   23.7087 H   0  0  0  0  0  0  0  0  0  0  0  0
   -3.1028    1.9094   27.6736 H   0  0  0  0  0  0  0  0  0  0  0  0
   -2.4647    0.4270   26.9149 H   0  0  0  0  0  0  0  0  0  0  0  0
  1  2  2  0
  2  3  1  0
  3  4  1  0
  4  5  2  0
  5  6  1  0
  6  7  2  0
  7  8  1  0
  8  9  1  0
  9 10  2  0
 10 11  1  0
 11 12  1  0
 12 13  2  0
 13 14  1  0
 14 15  1  0
 15 16  1  0
 16 17  1  0
  8 18  2  0
  2 19  1  0
 19 20  2  0
 20 21  1  0
 21 22  2  0
 22 23  1  0
 23 24  2  0
 23 25  1  0
 25 26  1  0
 26 27  1  0
 18  4  1  0
 24 19  1  0
 13  9  1  0
 27 22  1  0
 17 12  1  0
  3 28  1  0
  5 29  1  0
  6 30  1  0
  7 31  1  0
 11 32  1  0
 14 33  1  0
 14 34  1  0
 15 35  1  0
 15 36  1  0
 16 37  1  0
 16 38  1  0
 17 39  1  0
 17 40  1  0
 18 41  1  0
 20 42  1  0
 21 43  1  0
 24 44  1  0
 26 45  1  0
 26 46  1  0
M  END
>  <Energy>  (285) 
54.952916973302486

>  <compound_id>  (285) 
57176

>  <target_id>  (285) 
1

>  <reference_id>  (285) 
13

>  <inspiration_ids>  (285) 
[13, 127]

>  <energy_score>  (285) 
-27.9057107322476

>  <distance_score>  (285) 
9.736558159624176

>  <path>  (285) 
/opt/xchem-fragalysis-2/maxwin/BulkDock/SCRATCH/511020/C57176-P13/C57176-P13.minimised.mol

>  <scratch_subdir>  (285) 
/opt/xchem-fragalysis-2/maxwin/BulkDock/SCRATCH/511020/C57176-P13

>  <fragmenstein_runtime>  (285) 
32.87146592140198

>  <fragmenstein_outcome>  (285) 
too moved

>  <fragmenstein_mode>  (285) 
expansion

>  <fragmenstein_error>  (285) 


$$$$
C57176-P127
     RDKit          3D

 46 50  0  0  0  0  0  0  0  0999 V2000
   -8.6549    0.3879   25.0388 O   0  0  0  0  0  0  0  0  0  0  0  0
   -7.8105    0.9904   24.4034 C   0  0  0  0  0  0  0  0  0  0  0  0
   -7.8710    1.2614   22.6027 N   0  0  0  0  0  0  0  0  0  0  0  0
   -9.0085    0.9107   21.4961 C   0  0  0  0  0  0  0  0  0  0  0  0
   -9.9057    1.9466   21.4107 C   0  0  0  0  0  0  0  0  0  0  0  0
  -10.0715    2.6755   20.1362 C   0  0  0  0  0  0  0  0  0  0  0  0
   -9.3908    2.4853   18.8012 C   0  0  0  0  0  0  0  0  0  0  0  0
   -8.4913    1.4541   18.5025 C   0  0  0  0  0  0  0  0  0  0  0  0
   -7.4767    1.4560   16.9240 C   0  0  0  0  0  0  0  0  0  0  0  0
   -7.3676    3.3420   16.6893 N   0  0  0  0  0  0  0  0  0  0  0  0
   -7.3938    3.5060   14.6444 N   0  0  0  0  0  0  0  0  0  0  0  0
   -6.5995    1.9180   13.8179 C   0  0  0  0  0  0  0  0  0  0  0  0
   -7.4351    1.2001   14.5656 C   0  0  0  0  0  0  0  0  0  0  0  0
   -8.6193    2.4142   13.1938 C   0  0  0  0  0  0  0  0  0  0  0  0
   -9.2430    1.9482   11.4430 C   0  0  0  0  0  0  0  0  0  0  0  0
   -8.1331    0.7111   10.9376 C   0  0  0  0  0  0  0  0  0  0  0  0
   -6.8184    0.5765   12.3713 C   0  0  0  0  0  0  0  0  0  0  0  0
   -8.4225    0.7332   19.8808 C   0  0  0  0  0  0  0  0  0  0  0  0
   -6.1341    1.6653   25.3269 C   0  0  0  0  0  0  0  0  0  0  0  0
   -5.2092    1.1953   26.2431 C   0  0  0  0  0  0  0  0  0  0  0  0
   -3.6900    1.2548   26.4267 C   0  0  0  0  0  0  0  0  0  0  0  0
   -3.0378    2.3511   26.0270 C   0  0  0  0  0  0  0  0  0  0  0  0
   -3.8112    3.2200   25.3742 C   0  0  0  0  0  0  0  0  0  0  0  0
   -5.1887    2.9278   25.0646 C   0  0  0  0  0  0  0  0  0  0  0  0
   -3.1021    4.2949   24.9333 O   0  0  0  0  0  0  0  0  0  0  0  0
   -1.8283    4.0344   25.5588 C   0  0  0  0  0  0  0  0  0  0  0  0
   -1.7520    2.7140   26.1402 O   0  0  0  0  0  0  0  0  0  0  0  0
   -7.0350    1.7028   22.3088 H   0  0  0  0  0  0  0  0  0  0  0  0
  -10.3725    2.3511   22.3045 H   0  0  0  0  0  0  0  0  0  0  0  0
  -10.7390    3.5437   20.1797 H   0  0  0  0  0  0  0  0  0  0  0  0
   -9.6191    3.2522   18.0631 H   0  0  0  0  0  0  0  0  0  0  0  0
   -7.0526    4.4177   14.3463 H   0  0  0  0  0  0  0  0  0  0  0  0
   -8.3420    3.4844   12.9793 H   0  0  0  0  0  0  0  0  0  0  0  0
   -9.6123    2.8330   13.6440 H   0  0  0  0  0  0  0  0  0  0  0  0
   -9.2859    2.8375   10.7982 H   0  0  0  0  0  0  0  0  0  0  0  0
  -10.2760    1.5691   11.4687 H   0  0  0  0  0  0  0  0  0  0  0  0
   -7.7073    0.8423    9.9324 H   0  0  0  0  0  0  0  0  0  0  0  0
   -8.8032   -0.1409   10.8740 H   0  0  0  0  0  0  0  0  0  0  0  0
   -7.2290   -0.3297   12.7488 H   0  0  0  0  0  0  0  0  0  0  0  0
   -5.9520   -0.0496   12.1794 H   0  0  0  0  0  0  0  0  0  0  0  0
   -8.3768   -0.3435   19.6418 H   0  0  0  0  0  0  0  0  0  0  0  0
   -5.4097    1.8901   27.1063 H   0  0  0  0  0  0  0  0  0  0  0  0
   -3.1606    0.4954   26.9919 H   0  0  0  0  0  0  0  0  0  0  0  0
   -5.4097    3.7439   24.3801 H   0  0  0  0  0  0  0  0  0  0  0  0
   -1.0426    4.1260   24.8005 H   0  0  0  0  0  0  0  0  0  0  0  0
   -1.6524    4.7817   26.3425 H   0  0  0  0  0  0  0  0  0  0  0  0
  1  2  2  0
  2  3  1  0
  3  4  1  0
  4  5  2  0
  5  6  1  0
  6  7  2  0
  7  8  1  0
  8  9  1  0
  9 10  2  0
 10 11  1  0
 11 12  1  0
 12 13  2  0
 13 14  1  0
 14 15  1  0
 15 16  1  0
 16 17  1  0
  8 18  2  0
  2 19  1  0
 19 20  2  0
 20 21  1  0
 21 22  2  0
 22 23  1  0
 23 24  2  0
 23 25  1  0
 25 26  1  0
 26 27  1  0
 18  4  1  0
 24 19  1  0
 13  9  1  0
 27 22  1  0
 17 12  1  0
  3 28  1  0
  5 29  1  0
  6 30  1  0
  7 31  1  0
 11 32  1  0
 14 33  1  0
 14 34  1  0
 15 35  1  0
 15 36  1  0
 16 37  1  0
 16 38  1  0
 17 39  1  0
 17 40  1  0
 18 41  1  0
 20 42  1  0
 21 43  1  0
 24 44  1  0
 26 45  1  0
 26 46  1  0
M  END
>  <Energy>  (286) 
1721.6973296033882

>  <compound_id>  (286) 
57176

>  <target_id>  (286) 
1

>  <reference_id>  (286) 
127

>  <inspiration_ids>  (286) 
[13, 127]

>  <energy_score>  (286) 
1638.8387018978383

>  <distance_score>  (286) 
8.59601459814652

>  <path>  (286) 
/opt/xchem-fragalysis-2/maxwin/BulkDock/SCRATCH/511020/C57176-P127/C57176-P127.minimised.mol

>  <scratch_subdir>  (286) 
/opt/xchem-fragalysis-2/maxwin/BulkDock/SCRATCH/511020/C57176-P127

>  <fragmenstein_runtime>  (286) 
39.958916425704956

>  <fragmenstein_outcome>  (286) 
too moved

>  <fragmenstein_mode>  (286) 
expansion

>  <fragmenstein_error>  (286) 


$$$$
C19397-P13
     RDKit          3D

 40 43  0  0  0  0  0  0  0  0999 V2000
   -5.1903    5.8289   19.8745 O   0  0  0  0  0  0  0  0  0  0  0  0
   -4.6759    4.8205   20.2692 C   0  0  0  0  0  0  0  0  0  0  0  0
   -3.6228    4.9153   21.3902 C   0  0  0  0  0  0  0  0  0  0  0  0
   -3.5636    4.0751   22.4474 C   0  0  0  0  0  0  0  0  0  0  0  0
   -2.5748    3.9509   23.5412 C   0  0  0  0  0  0  0  0  0  0  0  0
   -1.1995    4.2019   23.3603 C   0  0  0  0  0  0  0  0  0  0  0  0
   -0.2701    3.9180   24.3740 C   0  0  0  0  0  0  0  0  0  0  0  0
   -0.7392    3.3645   25.5448 C   0  0  0  0  0  0  0  0  0  0  0  0
   -2.0732    3.1130   25.7343 C   0  0  0  0  0  0  0  0  0  0  0  0
   -3.0066    3.4070   24.7655 C   0  0  0  0  0  0  0  0  0  0  0  0
   -2.3305    2.5294   26.9324 O   0  0  0  0  0  0  0  0  0  0  0  0
   -1.0136    2.5120   27.5079 C   0  0  0  0  0  0  0  0  0  0  0  0
    0.0163    2.9783   26.6060 O   0  0  0  0  0  0  0  0  0  0  0  0
   -4.8645    3.4431   19.8676 N   0  0  0  0  0  0  0  0  0  0  0  0
   -5.7594    2.8672   18.9753 C   0  0  0  0  0  0  0  0  0  0  0  0
   -7.0227    2.7465   19.3248 C   0  0  0  0  0  0  0  0  0  0  0  0
   -7.9271    1.4503   18.9052 C   0  0  0  0  0  0  0  0  0  0  0  0
   -8.3993    0.9853   17.7549 C   0  0  0  0  0  0  0  0  0  0  0  0
  -10.1631    1.3802   16.9066 C   0  0  0  0  0  0  0  0  0  0  0  0
  -11.0637    2.3483   15.3369 C   0  0  0  0  0  0  0  0  0  0  0  0
  -12.3339    2.2708   14.7417 C   0  0  0  0  0  0  0  0  0  0  0  0
  -12.0119    1.3319   15.6680 N   0  0  0  0  0  0  0  0  0  0  0  0
  -11.0829    2.2202   16.8968 N   0  0  0  0  0  0  0  0  0  0  0  0
   -7.0081    1.2357   17.5935 C   0  0  0  0  0  0  0  0  0  0  0  0
   -5.6689    1.7941   18.1840 C   0  0  0  0  0  0  0  0  0  0  0  0
   -2.9256    5.7346   21.2608 H   0  0  0  0  0  0  0  0  0  0  0  0
   -4.3573    3.3435   22.5311 H   0  0  0  0  0  0  0  0  0  0  0  0
   -0.8393    4.6051   22.4166 H   0  0  0  0  0  0  0  0  0  0  0  0
    0.7864    4.1143   24.2344 H   0  0  0  0  0  0  0  0  0  0  0  0
   -4.0531    3.1850   24.9510 H   0  0  0  0  0  0  0  0  0  0  0  0
   -0.7743    1.4856   27.8081 H   0  0  0  0  0  0  0  0  0  0  0  0
   -1.0065    3.1508   28.3981 H   0  0  0  0  0  0  0  0  0  0  0  0
   -4.3283    2.8507   20.4697 H   0  0  0  0  0  0  0  0  0  0  0  0
   -7.5203    3.6334   19.6906 H   0  0  0  0  0  0  0  0  0  0  0  0
   -8.6750    1.2487   19.5062 H   0  0  0  0  0  0  0  0  0  0  0  0
  -10.4466    2.6848   14.4831 H   0  0  0  0  0  0  0  0  0  0  0  0
  -13.3675    2.0731   14.5213 H   0  0  0  0  0  0  0  0  0  0  0  0
  -12.1103    0.3061   15.6353 H   0  0  0  0  0  0  0  0  0  0  0  0
   -6.9382    2.2965   17.2400 H   0  0  0  0  0  0  0  0  0  0  0  0
   -4.8104    1.6253   17.5485 H   0  0  0  0  0  0  0  0  0  0  0  0
  1  2  2  0
  2  3  1  0
  3  4  2  3
  4  5  1  0
  5  6  2  0
  6  7  1  0
  7  8  2  0
  8  9  1  0
  9 10  2  0
  9 11  1  0
 11 12  1  0
 12 13  1  0
  2 14  1  0
 14 15  1  0
 15 16  2  0
 16 17  1  0
 17 18  2  0
 18 19  1  0
 19 20  1  0
 20 21  2  0
 21 22  1  0
 22 23  1  0
 18 24  1  0
 24 25  2  0
 10  5  1  0
 25 15  1  0
 13  8  1  0
 23 19  2  0
  3 26  1  0
  4 27  1  0
  6 28  1  0
  7 29  1  0
 10 30  1  0
 12 31  1  0
 12 32  1  0
 14 33  1  0
 16 34  1  0
 17 35  1  0
 20 36  1  0
 21 37  1  0
 22 38  1  0
 24 39  1  0
 25 40  1  0
M  END
>  <Energy>  (287) 
793.47002382329492

>  <compound_id>  (287) 
19397

>  <target_id>  (287) 
1

>  <reference_id>  (287) 
13

>  <inspiration_ids>  (287) 
[13, 127]

>  <energy_score>  (287) 
684.9299480506489

>  <distance_score>  (287) 
8.410157922966718

>  <path>  (287) 
/opt/xchem-fragalysis-2/maxwin/BulkDock/SCRATCH/511020/C19397-P13/C19397-P13.minimised.mol

>  <scratch_subdir>  (287) 
/opt/xchem-fragalysis-2/maxwin/BulkDock/SCRATCH/511020/C19397-P13

>  <fragmenstein_runtime>  (287) 
10.981543779373169

>  <fragmenstein_outcome>  (287) 
too moved

>  <fragmenstein_mode>  (287) 
expansion

>  <fragmenstein_error>  (287) 


$$$$
C19397-P127
     RDKit          3D

 40 43  0  0  0  0  0  0  0  0999 V2000
   -2.1581    5.8510   22.8706 O   0  0  0  0  0  0  0  0  0  0  0  0
   -3.0784    5.1025   22.7210 C   0  0  0  0  0  0  0  0  0  0  0  0
   -3.5846    4.2071   23.8327 C   0  0  0  0  0  0  0  0  0  0  0  0
   -3.1094    3.5279   24.8919 C   0  0  0  0  0  0  0  0  0  0  0  0
   -1.7911    3.2767   25.4682 C   0  0  0  0  0  0  0  0  0  0  0  0
   -1.7461    2.8192   26.8142 C   0  0  0  0  0  0  0  0  0  0  0  0
   -0.5429    2.4892   27.4371 C   0  0  0  0  0  0  0  0  0  0  0  0
    0.5969    2.6143   26.6868 C   0  0  0  0  0  0  0  0  0  0  0  0
    0.5608    3.0467   25.3802 C   0  0  0  0  0  0  0  0  0  0  0  0
   -0.6115    3.3876   24.7400 C   0  0  0  0  0  0  0  0  0  0  0  0
    1.7930    3.0533   24.8076 O   0  0  0  0  0  0  0  0  0  0  0  0
    2.6097    2.6242   25.9152 C   0  0  0  0  0  0  0  0  0  0  0  0
    1.8541    2.3166   27.1032 O   0  0  0  0  0  0  0  0  0  0  0  0
   -3.9703    4.9102   21.5920 N   0  0  0  0  0  0  0  0  0  0  0  0
   -4.0819    5.6026   20.3780 C   0  0  0  0  0  0  0  0  0  0  0  0
   -4.9519    5.0036   19.4755 C   0  0  0  0  0  0  0  0  0  0  0  0
   -5.2921    5.6203   18.2796 C   0  0  0  0  0  0  0  0  0  0  0  0
   -4.7888    6.8599   17.8997 C   0  0  0  0  0  0  0  0  0  0  0  0
   -5.2946    7.4017   16.6194 C   0  0  0  0  0  0  0  0  0  0  0  0
   -6.2344    8.4506   16.4122 C   0  0  0  0  0  0  0  0  0  0  0  0
   -6.6835    8.3077   15.1155 C   0  0  0  0  0  0  0  0  0  0  0  0
   -5.9918    7.2516   14.6111 N   0  0  0  0  0  0  0  0  0  0  0  0
   -5.0481    6.7950   15.4450 N   0  0  0  0  0  0  0  0  0  0  0  0
   -3.8877    7.4658   18.7873 C   0  0  0  0  0  0  0  0  0  0  0  0
   -3.5239    6.8318   20.0222 C   0  0  0  0  0  0  0  0  0  0  0  0
   -4.6695    4.1634   23.7864 H   0  0  0  0  0  0  0  0  0  0  0  0
   -3.8952    3.0377   25.4754 H   0  0  0  0  0  0  0  0  0  0  0  0
   -2.6670    2.7267   27.3911 H   0  0  0  0  0  0  0  0  0  0  0  0
   -0.5127    2.1457   28.4633 H   0  0  0  0  0  0  0  0  0  0  0  0
   -0.5977    3.7292   23.7114 H   0  0  0  0  0  0  0  0  0  0  0  0
    3.3268    3.4191   26.1511 H   0  0  0  0  0  0  0  0  0  0  0  0
    3.1669    1.7300   25.6130 H   0  0  0  0  0  0  0  0  0  0  0  0
   -4.5882    4.1250   21.7850 H   0  0  0  0  0  0  0  0  0  0  0  0
   -5.3876    4.0274   19.6659 H   0  0  0  0  0  0  0  0  0  0  0  0
   -5.9682    5.0883   17.6285 H   0  0  0  0  0  0  0  0  0  0  0  0
   -6.6230    9.1317   17.1555 H   0  0  0  0  0  0  0  0  0  0  0  0
   -7.4398    8.8242   14.5440 H   0  0  0  0  0  0  0  0  0  0  0  0
   -6.0807    6.8076   13.7044 H   0  0  0  0  0  0  0  0  0  0  0  0
   -3.4538    8.4319   18.5429 H   0  0  0  0  0  0  0  0  0  0  0  0
   -2.8391    7.3364   20.6995 H   0  0  0  0  0  0  0  0  0  0  0  0
  1  2  2  0
  2  3  1  0
  3  4  2  3
  4  5  1  0
  5  6  2  0
  6  7  1  0
  7  8  2  0
  8  9  1  0
  9 10  2  0
  9 11  1  0
 11 12  1  0
 12 13  1  0
  2 14  1  0
 14 15  1  0
 15 16  2  0
 16 17  1  0
 17 18  2  0
 18 19  1  0
 19 20  1  0
 20 21  2  0
 21 22  1  0
 22 23  1  0
 18 24  1  0
 24 25  2  0
 10  5  1  0
 25 15  1  0
 13  8  1  0
 23 19  2  0
  3 26  1  0
  4 27  1  0
  6 28  1  0
  7 29  1  0
 10 30  1  0
 12 31  1  0
 12 32  1  0
 14 33  1  0
 16 34  1  0
 17 35  1  0
 20 36  1  0
 21 37  1  0
 22 38  1  0
 24 39  1  0
 25 40  1  0
M  END
>  <Energy>  (288) 
57.999126189872108

>  <compound_id>  (288) 
19397

>  <target_id>  (288) 
1

>  <reference_id>  (288) 
127

>  <inspiration_ids>  (288) 
[13, 127]

>  <energy_score>  (288) 
-50.54094958276767

>  <distance_score>  (288) 
9.500450489562434

>  <path>  (288) 
/opt/xchem-fragalysis-2/maxwin/BulkDock/SCRATCH/511020/C19397-P127/C19397-P127.minimised.mol

>  <scratch_subdir>  (288) 
/opt/xchem-fragalysis-2/maxwin/BulkDock/SCRATCH/511020/C19397-P127

>  <fragmenstein_runtime>  (288) 
18.245678901672363

>  <fragmenstein_outcome>  (288) 
too moved

>  <fragmenstein_mode>  (288) 
expansion

>  <fragmenstein_error>  (288) 


$$$$
C17635-P13
     RDKit          3D

 42 45  0  0  0  0  0  0  0  0999 V2000
   -4.5684    3.3780   24.5730 O   0  0  0  0  0  0  0  0  0  0  0  0
   -5.0203    2.3050   24.9739 C   0  0  0  0  0  0  0  0  0  0  0  0
   -4.3977    1.9347   26.2854 C   0  0  0  0  0  0  0  0  0  0  0  0
   -3.0227    1.2867   26.0697 C   0  0  0  0  0  0  0  0  0  0  0  0
   -1.9987    1.3856   27.1646 C   0  0  0  0  0  0  0  0  0  0  0  0
   -1.4006    2.6330   27.4520 C   0  0  0  0  0  0  0  0  0  0  0  0
   -0.3354    2.7273   28.3458 C   0  0  0  0  0  0  0  0  0  0  0  0
    0.0926    1.5639   28.9406 C   0  0  0  0  0  0  0  0  0  0  0  0
   -0.4977    0.3487   28.6803 C   0  0  0  0  0  0  0  0  0  0  0  0
   -1.5394    0.2217   27.7952 C   0  0  0  0  0  0  0  0  0  0  0  0
    0.0730   -0.6671   29.3773 O   0  0  0  0  0  0  0  0  0  0  0  0
    1.1133    0.0432   30.0730 C   0  0  0  0  0  0  0  0  0  0  0  0
    1.1081    1.4643   29.8367 O   0  0  0  0  0  0  0  0  0  0  0  0
   -6.0994    1.2108   24.2055 N   0  0  0  0  0  0  0  0  0  0  0  0
   -6.8650    1.2487   22.3792 C   0  0  0  0  0  0  0  0  0  0  0  0
   -8.1091   -0.3334   22.6692 C   0  0  0  0  0  0  0  0  0  0  0  0
   -7.6326   -1.7898   21.3424 C   0  0  0  0  0  0  0  0  0  0  0  0
   -8.3481   -1.1305   19.7596 C   0  0  0  0  0  0  0  0  0  0  0  0
   -7.7668    0.6999   19.1910 C   0  0  0  0  0  0  0  0  0  0  0  0
   -8.8315   -0.4302   17.9787 C   0  0  0  0  0  0  0  0  0  0  0  0
  -10.1234   -0.1975   17.2265 C   0  0  0  0  0  0  0  0  0  0  0  0
  -11.0090   -1.1874   16.7282 C   0  0  0  0  0  0  0  0  0  0  0  0
  -10.4588   -2.2898   17.0706 N   0  0  0  0  0  0  0  0  0  0  0  0
   -9.8259   -1.7903   18.0974 N   0  0  0  0  0  0  0  0  0  0  0  0
   -6.2687    1.4895   20.3460 C   0  0  0  0  0  0  0  0  0  0  0  0
   -4.2067    2.8764   26.8058 H   0  0  0  0  0  0  0  0  0  0  0  0
   -5.1004    1.4640   26.9128 H   0  0  0  0  0  0  0  0  0  0  0  0
   -2.5467    1.7478   25.1936 H   0  0  0  0  0  0  0  0  0  0  0  0
   -3.1287    0.2359   25.8113 H   0  0  0  0  0  0  0  0  0  0  0  0
   -1.7600    3.5344   26.9553 H   0  0  0  0  0  0  0  0  0  0  0  0
    0.1248    3.6826   28.5698 H   0  0  0  0  0  0  0  0  0  0  0  0
   -1.9520   -0.7566   27.5655 H   0  0  0  0  0  0  0  0  0  0  0  0
    2.0838   -0.3605   29.7606 H   0  0  0  0  0  0  0  0  0  0  0  0
    0.9949   -0.1308   31.1487 H   0  0  0  0  0  0  0  0  0  0  0  0
   -6.3381    0.4615   24.8426 H   0  0  0  0  0  0  0  0  0  0  0  0
   -8.5098   -0.7448   23.6225 H   0  0  0  0  0  0  0  0  0  0  0  0
   -7.8502   -2.8049   21.5422 H   0  0  0  0  0  0  0  0  0  0  0  0
   -9.3704   -1.4451   19.7702 H   0  0  0  0  0  0  0  0  0  0  0  0
  -10.3375    0.8599   17.0296 H   0  0  0  0  0  0  0  0  0  0  0  0
  -11.8101   -1.0695   16.0154 H   0  0  0  0  0  0  0  0  0  0  0  0
  -10.0781   -2.3708   18.8927 H   0  0  0  0  0  0  0  0  0  0  0  0
   -5.6808    2.3355   19.9811 H   0  0  0  0  0  0  0  0  0  0  0  0
  1  2  2  0
  2  3  1  0
  3  4  1  0
  4  5  1  0
  5  6  2  0
  6  7  1  0
  7  8  2  0
  8  9  1  0
  9 10  2  0
  9 11  1  0
 11 12  1  0
 12 13  1  0
  2 14  1  0
 14 15  1  0
 15 16  2  0
 16 17  1  0
 17 18  2  0
 18 19  1  0
 19 20  1  0
 20 21  2  0
 21 22  1  0
 22 23  2  0
 23 24  1  0
 19 25  2  0
 10  5  1  0
 25 15  1  0
 13  8  1  0
 24 20  1  0
  3 26  1  0
  3 27  1  0
  4 28  1  0
  4 29  1  0
  6 30  1  0
  7 31  1  0
 10 32  1  0
 12 33  1  0
 12 34  1  0
 14 35  1  0
 16 36  1  0
 17 37  1  0
 18 38  1  0
 21 39  1  0
 22 40  1  0
 24 41  1  0
 25 42  1  0
M  END
>  <Energy>  (289) 
1414.9010609472919

>  <compound_id>  (289) 
17635

>  <target_id>  (289) 
1

>  <reference_id>  (289) 
13

>  <inspiration_ids>  (289) 
[13, 127]

>  <energy_score>  (289) 
1332.7943552303122

>  <distance_score>  (289) 
7.02310612395412

>  <path>  (289) 
/opt/xchem-fragalysis-2/maxwin/BulkDock/SCRATCH/511020/C17635-P13/C17635-P13.minimised.mol

>  <scratch_subdir>  (289) 
/opt/xchem-fragalysis-2/maxwin/BulkDock/SCRATCH/511020/C17635-P13

>  <fragmenstein_runtime>  (289) 
10.515511512756348

>  <fragmenstein_outcome>  (289) 
too moved

>  <fragmenstein_mode>  (289) 
expansion

>  <fragmenstein_error>  (289) 


$$$$
C17635-P127
     RDKit          3D

 42 45  0  0  0  0  0  0  0  0999 V2000
   -3.7417   -2.6611   24.6774 O   0  0  0  0  0  0  0  0  0  0  0  0
   -4.4733   -2.3126   25.6371 C   0  0  0  0  0  0  0  0  0  0  0  0
   -3.4715   -2.0320   27.0585 C   0  0  0  0  0  0  0  0  0  0  0  0
   -2.6830   -0.6501   27.0160 C   0  0  0  0  0  0  0  0  0  0  0  0
   -1.5919   -0.2935   27.9827 C   0  0  0  0  0  0  0  0  0  0  0  0
   -0.8404   -1.2213   28.7206 C   0  0  0  0  0  0  0  0  0  0  0  0
    0.2317   -0.7899   29.5124 C   0  0  0  0  0  0  0  0  0  0  0  0
    0.5273    0.5577   29.5291 C   0  0  0  0  0  0  0  0  0  0  0  0
   -0.1958    1.4625   28.7997 C   0  0  0  0  0  0  0  0  0  0  0  0
   -1.2553    1.0729   28.0289 C   0  0  0  0  0  0  0  0  0  0  0  0
    0.2507    2.7353   28.9290 O   0  0  0  0  0  0  0  0  0  0  0  0
    1.3479    2.5357   29.8346 C   0  0  0  0  0  0  0  0  0  0  0  0
    1.5278    1.1561   30.2274 O   0  0  0  0  0  0  0  0  0  0  0  0
   -6.4323   -2.1655   25.5096 N   0  0  0  0  0  0  0  0  0  0  0  0
   -7.5068   -2.5448   24.2690 C   0  0  0  0  0  0  0  0  0  0  0  0
   -8.4437   -1.5897   24.4997 C   0  0  0  0  0  0  0  0  0  0  0  0
  -10.0735   -1.2752   23.9464 C   0  0  0  0  0  0  0  0  0  0  0  0
  -11.0606   -2.0873   23.6304 C   0  0  0  0  0  0  0  0  0  0  0  0
  -10.3016   -2.6929   22.8210 C   0  0  0  0  0  0  0  0  0  0  0  0
  -11.0421   -2.7552   21.3980 C   0  0  0  0  0  0  0  0  0  0  0  0
  -10.6564   -2.6156   20.0769 C   0  0  0  0  0  0  0  0  0  0  0  0
  -11.7755   -2.7213   19.2563 C   0  0  0  0  0  0  0  0  0  0  0  0
  -12.8592   -2.9945   19.9592 N   0  0  0  0  0  0  0  0  0  0  0  0
  -12.3681   -3.0406   21.2296 N   0  0  0  0  0  0  0  0  0  0  0  0
   -8.6401   -2.7478   23.3958 C   0  0  0  0  0  0  0  0  0  0  0  0
   -2.6126   -2.6554   26.9304 H   0  0  0  0  0  0  0  0  0  0  0  0
   -3.9212   -2.4406   27.9300 H   0  0  0  0  0  0  0  0  0  0  0  0
   -2.2513   -0.5513   26.0244 H   0  0  0  0  0  0  0  0  0  0  0  0
   -3.3436    0.2239   27.0043 H   0  0  0  0  0  0  0  0  0  0  0  0
   -1.0630   -2.2837   28.6533 H   0  0  0  0  0  0  0  0  0  0  0  0
    0.8264   -1.4974   30.0783 H   0  0  0  0  0  0  0  0  0  0  0  0
   -1.8036    1.8155   27.4557 H   0  0  0  0  0  0  0  0  0  0  0  0
    1.1739    3.1341   30.7365 H   0  0  0  0  0  0  0  0  0  0  0  0
    2.2700    2.8846   29.3553 H   0  0  0  0  0  0  0  0  0  0  0  0
   -6.7883   -1.8122   26.3205 H   0  0  0  0  0  0  0  0  0  0  0  0
   -7.9712   -0.7543   25.0405 H   0  0  0  0  0  0  0  0  0  0  0  0
   -9.9846   -0.4677   23.1920 H   0  0  0  0  0  0  0  0  0  0  0  0
  -11.7324   -2.6374   24.2437 H   0  0  0  0  0  0  0  0  0  0  0  0
   -9.6677   -2.3881   19.7208 H   0  0  0  0  0  0  0  0  0  0  0  0
  -11.7962   -2.5810   18.1897 H   0  0  0  0  0  0  0  0  0  0  0  0
  -12.9838   -3.3127   21.9830 H   0  0  0  0  0  0  0  0  0  0  0  0
   -8.1905   -2.6959   22.3364 H   0  0  0  0  0  0  0  0  0  0  0  0
  1  2  2  0
  2  3  1  0
  3  4  1  0
  4  5  1  0
  5  6  2  0
  6  7  1  0
  7  8  2  0
  8  9  1  0
  9 10  2  0
  9 11  1  0
 11 12  1  0
 12 13  1  0
  2 14  1  0
 14 15  1  0
 15 16  2  0
 16 17  1  0
 17 18  2  0
 18 19  1  0
 19 20  1  0
 20 21  2  0
 21 22  1  0
 22 23  2  0
 23 24  1  0
 19 25  2  0
 10  5  1  0
 25 15  1  0
 13  8  1  0
 24 20  1  0
  3 26  1  0
  3 27  1  0
  4 28  1  0
  4 29  1  0
  6 30  1  0
  7 31  1  0
 10 32  1  0
 12 33  1  0
 12 34  1  0
 14 35  1  0
 16 36  1  0
 17 37  1  0
 18 38  1  0
 21 39  1  0
 22 40  1  0
 24 41  1  0
 25 42  1  0
M  END
>  <Energy>  (290) 
542.67573597500837

>  <compound_id>  (290) 
17635

>  <target_id>  (290) 
1

>  <reference_id>  (290) 
127

>  <inspiration_ids>  (290) 
[13, 127]

>  <energy_score>  (290) 
460.56903025803126

>  <distance_score>  (290) 
7.453222259577284

>  <path>  (290) 
/opt/xchem-fragalysis-2/maxwin/BulkDock/SCRATCH/511020/C17635-P127/C17635-P127.minimised.mol

>  <scratch_subdir>  (290) 
/opt/xchem-fragalysis-2/maxwin/BulkDock/SCRATCH/511020/C17635-P127

>  <fragmenstein_runtime>  (290) 
10.18741226196289

>  <fragmenstein_outcome>  (290) 
too moved

>  <fragmenstein_mode>  (290) 
expansion

>  <fragmenstein_error>  (290) 


$$$$
C17638-P13
     RDKit          3D

 43 46  0  0  0  0  0  0  0  0999 V2000
   -1.6515   -2.0839   27.9334 C   0  0  0  0  0  0  0  0  0  0  0  0
   -2.3899   -1.2843   26.7775 C   0  0  0  0  0  0  0  0  0  0  0  0
   -3.4779   -2.0075   25.8848 N   0  0  0  0  0  0  0  0  0  0  0  0
   -3.9398   -2.5076   24.3236 C   0  0  0  0  0  0  0  0  0  0  0  0
   -6.0042   -2.6763   23.9368 C   0  0  0  0  0  0  0  0  0  0  0  0
   -7.2747   -1.9863   24.6628 C   0  0  0  0  0  0  0  0  0  0  0  0
   -8.6198   -2.0125   24.1184 C   0  0  0  0  0  0  0  0  0  0  0  0
   -8.9579   -2.3977   22.8471 C   0  0  0  0  0  0  0  0  0  0  0  0
  -10.5788   -2.4479   22.3648 C   0  0  0  0  0  0  0  0  0  0  0  0
  -11.7729   -2.7367   22.9956 C   0  0  0  0  0  0  0  0  0  0  0  0
  -12.7832   -2.7473   21.9946 C   0  0  0  0  0  0  0  0  0  0  0  0
  -12.2820   -2.6277   20.7721 N   0  0  0  0  0  0  0  0  0  0  0  0
  -10.9787   -2.4341   21.0198 N   0  0  0  0  0  0  0  0  0  0  0  0
   -7.7067   -2.7541   21.7063 C   0  0  0  0  0  0  0  0  0  0  0  0
   -6.4195   -3.0714   22.1662 C   0  0  0  0  0  0  0  0  0  0  0  0
   -1.7404    0.1090   26.6432 C   0  0  0  0  0  0  0  0  0  0  0  0
   -0.4155    0.3582   27.1095 C   0  0  0  0  0  0  0  0  0  0  0  0
    0.1251    1.6506   27.2639 C   0  0  0  0  0  0  0  0  0  0  0  0
   -0.6475    2.7587   26.9635 C   0  0  0  0  0  0  0  0  0  0  0  0
   -1.9246    2.5208   26.5146 C   0  0  0  0  0  0  0  0  0  0  0  0
   -2.4454    1.2504   26.3510 C   0  0  0  0  0  0  0  0  0  0  0  0
   -3.7242    1.2943   25.9250 O   0  0  0  0  0  0  0  0  0  0  0  0
   -3.9893    2.6904   25.9557 C   0  0  0  0  0  0  0  0  0  0  0  0
   -2.8287    3.4904   26.2210 O   0  0  0  0  0  0  0  0  0  0  0  0
   -2.3650   -2.5424   28.6242 H   0  0  0  0  0  0  0  0  0  0  0  0
   -0.9460   -2.8377   27.5931 H   0  0  0  0  0  0  0  0  0  0  0  0
   -1.1063   -1.4313   28.6249 H   0  0  0  0  0  0  0  0  0  0  0  0
   -3.1120   -0.9259   27.5122 H   0  0  0  0  0  0  0  0  0  0  0  0
   -3.5927   -2.8360   26.4689 H   0  0  0  0  0  0  0  0  0  0  0  0
   -3.4337   -3.4906   24.2054 H   0  0  0  0  0  0  0  0  0  0  0  0
   -3.2357   -2.2013   23.5445 H   0  0  0  0  0  0  0  0  0  0  0  0
   -7.1704   -1.4395   25.5832 H   0  0  0  0  0  0  0  0  0  0  0  0
   -9.4597   -1.5295   24.5267 H   0  0  0  0  0  0  0  0  0  0  0  0
  -11.9206   -2.8906   24.0527 H   0  0  0  0  0  0  0  0  0  0  0  0
  -13.8495   -2.8721   22.1267 H   0  0  0  0  0  0  0  0  0  0  0  0
  -10.3441   -2.3057   20.2440 H   0  0  0  0  0  0  0  0  0  0  0  0
   -7.8828   -2.8932   20.6969 H   0  0  0  0  0  0  0  0  0  0  0  0
   -5.6974   -3.6122   21.5391 H   0  0  0  0  0  0  0  0  0  0  0  0
    0.2411   -0.4755   27.3548 H   0  0  0  0  0  0  0  0  0  0  0  0
    1.1431    1.7726   27.6232 H   0  0  0  0  0  0  0  0  0  0  0  0
   -0.2779    3.7691   27.0895 H   0  0  0  0  0  0  0  0  0  0  0  0
   -4.7285    2.8151   26.7426 H   0  0  0  0  0  0  0  0  0  0  0  0
   -4.4230    3.0205   25.0098 H   0  0  0  0  0  0  0  0  0  0  0  0
  1  2  1  0
  2  3  1  0
  3  4  1  0
  4  5  1  0
  5  6  2  0
  6  7  1  0
  7  8  2  0
  8  9  1  0
  9 10  2  0
 10 11  1  0
 11 12  2  0
 12 13  1  0
  8 14  1  0
 14 15  2  0
  2 16  1  0
 16 17  2  0
 17 18  1  0
 18 19  2  0
 19 20  1  0
 20 21  2  0
 21 22  1  0
 22 23  1  0
 23 24  1  0
 15  5  1  0
 21 16  1  0
 13  9  1  0
 24 20  1  0
  1 25  1  0
  1 26  1  0
  1 27  1  0
  2 28  1  0
  3 29  1  0
  4 30  1  0
  4 31  1  0
  6 32  1  0
  7 33  1  0
 10 34  1  0
 11 35  1  0
 13 36  1  0
 14 37  1  0
 15 38  1  0
 17 39  1  0
 18 40  1  0
 19 41  1  0
 23 42  1  0
 23 43  1  0
M  END
>  <Energy>  (291) 
389.29707798640686

>  <compound_id>  (291) 
17638

>  <target_id>  (291) 
1

>  <reference_id>  (291) 
13

>  <inspiration_ids>  (291) 
[13, 127]

>  <energy_score>  (291) 
311.3188325294236

>  <distance_score>  (291) 
8.219106314833073

>  <path>  (291) 
/opt/xchem-fragalysis-2/maxwin/BulkDock/SCRATCH/511020/C17638-P13/C17638-P13.minimised.mol

>  <scratch_subdir>  (291) 
/opt/xchem-fragalysis-2/maxwin/BulkDock/SCRATCH/511020/C17638-P13

>  <fragmenstein_runtime>  (291) 
9.270498752593994

>  <fragmenstein_outcome>  (291) 
too moved

>  <fragmenstein_mode>  (291) 
expansion

>  <fragmenstein_error>  (291) 


$$$$
C17638-P127
     RDKit          3D

 43 46  0  0  0  0  0  0  0  0999 V2000
   -2.2082    0.5305   27.3303 C   0  0  0  0  0  0  0  0  0  0  0  0
   -3.1723    1.6709   26.9418 C   0  0  0  0  0  0  0  0  0  0  0  0
   -4.0718    1.2064   25.9086 N   0  0  0  0  0  0  0  0  0  0  0  0
   -5.4331    1.7299   25.5512 C   0  0  0  0  0  0  0  0  0  0  0  0
   -6.1437    0.8657   24.0993 C   0  0  0  0  0  0  0  0  0  0  0  0
   -5.4904    1.6500   22.3411 C   0  0  0  0  0  0  0  0  0  0  0  0
   -5.7658    1.9017   20.4634 C   0  0  0  0  0  0  0  0  0  0  0  0
   -7.3522    2.2745   19.8632 C   0  0  0  0  0  0  0  0  0  0  0  0
   -8.2986    1.0454   18.5923 C   0  0  0  0  0  0  0  0  0  0  0  0
   -9.7918    1.3715   17.4751 C   0  0  0  0  0  0  0  0  0  0  0  0
  -10.1994   -0.4875   17.2431 C   0  0  0  0  0  0  0  0  0  0  0  0
   -9.4577   -1.2714   17.9321 N   0  0  0  0  0  0  0  0  0  0  0  0
   -8.6691   -0.5210   18.6684 N   0  0  0  0  0  0  0  0  0  0  0  0
   -8.0398    2.1081   21.7431 C   0  0  0  0  0  0  0  0  0  0  0  0
   -7.6915    1.2155   23.1840 C   0  0  0  0  0  0  0  0  0  0  0  0
   -2.2951    2.8584   26.6354 C   0  0  0  0  0  0  0  0  0  0  0  0
   -1.8582    3.6634   27.7039 C   0  0  0  0  0  0  0  0  0  0  0  0
   -0.9279    4.7000   27.5402 C   0  0  0  0  0  0  0  0  0  0  0  0
   -0.4127    4.9710   26.2819 C   0  0  0  0  0  0  0  0  0  0  0  0
   -0.8529    4.1881   25.2389 C   0  0  0  0  0  0  0  0  0  0  0  0
   -1.7497    3.1520   25.4043 C   0  0  0  0  0  0  0  0  0  0  0  0
   -1.9671    2.4891   24.2334 O   0  0  0  0  0  0  0  0  0  0  0  0
   -1.3140    3.3789   23.3109 C   0  0  0  0  0  0  0  0  0  0  0  0
   -0.4547    4.3314   23.9477 O   0  0  0  0  0  0  0  0  0  0  0  0
   -2.7109   -0.4250   27.4952 H   0  0  0  0  0  0  0  0  0  0  0  0
   -1.4504    0.3613   26.5650 H   0  0  0  0  0  0  0  0  0  0  0  0
   -1.6777    0.7720   28.2596 H   0  0  0  0  0  0  0  0  0  0  0  0
   -3.7675    1.8945   27.7950 H   0  0  0  0  0  0  0  0  0  0  0  0
   -3.5512    1.3834   25.0501 H   0  0  0  0  0  0  0  0  0  0  0  0
   -5.3212    2.7904   25.3069 H   0  0  0  0  0  0  0  0  0  0  0  0
   -6.1736    1.6174   26.3214 H   0  0  0  0  0  0  0  0  0  0  0  0
   -4.6039    2.3801   22.4513 H   0  0  0  0  0  0  0  0  0  0  0  0
   -4.9800    2.4911   19.9712 H   0  0  0  0  0  0  0  0  0  0  0  0
  -10.5320    2.1615   17.5127 H   0  0  0  0  0  0  0  0  0  0  0  0
  -10.9250   -0.9181   16.5309 H   0  0  0  0  0  0  0  0  0  0  0  0
   -8.5662   -1.0620   19.5195 H   0  0  0  0  0  0  0  0  0  0  0  0
   -8.9832    1.6697   22.2299 H   0  0  0  0  0  0  0  0  0  0  0  0
   -8.4808    2.0514   23.6887 H   0  0  0  0  0  0  0  0  0  0  0  0
   -2.2431    3.4697   28.6967 H   0  0  0  0  0  0  0  0  0  0  0  0
   -0.6205    5.2871   28.4024 H   0  0  0  0  0  0  0  0  0  0  0  0
    0.3006    5.7704   26.1224 H   0  0  0  0  0  0  0  0  0  0  0  0
   -2.0768    3.9143   22.7323 H   0  0  0  0  0  0  0  0  0  0  0  0
   -0.7057    2.7822   22.6282 H   0  0  0  0  0  0  0  0  0  0  0  0
  1  2  1  0
  2  3  1  0
  3  4  1  0
  4  5  1  0
  5  6  2  0
  6  7  1  0
  7  8  2  0
  8  9  1  0
  9 10  2  0
 10 11  1  0
 11 12  2  0
 12 13  1  0
  8 14  1  0
 14 15  2  0
  2 16  1  0
 16 17  2  0
 17 18  1  0
 18 19  2  0
 19 20  1  0
 20 21  2  0
 21 22  1  0
 22 23  1  0
 23 24  1  0
 15  5  1  0
 21 16  1  0
 13  9  1  0
 24 20  1  0
  1 25  1  0
  1 26  1  0
  1 27  1  0
  2 28  1  0
  3 29  1  0
  4 30  1  0
  4 31  1  0
  6 32  1  0
  7 33  1  0
 10 34  1  0
 11 35  1  0
 13 36  1  0
 14 37  1  0
 15 38  1  0
 17 39  1  0
 18 40  1  0
 19 41  1  0
 23 42  1  0
 23 43  1  0
M  END
>  <Energy>  (292) 
962.72735197419809

>  <compound_id>  (292) 
17638

>  <target_id>  (292) 
1

>  <reference_id>  (292) 
127

>  <inspiration_ids>  (292) 
[13, 127]

>  <energy_score>  (292) 
884.7491065172193

>  <distance_score>  (292) 
7.40520914182914

>  <path>  (292) 
/opt/xchem-fragalysis-2/maxwin/BulkDock/SCRATCH/511020/C17638-P127/C17638-P127.minimised.mol

>  <scratch_subdir>  (292) 
/opt/xchem-fragalysis-2/maxwin/BulkDock/SCRATCH/511020/C17638-P127

>  <fragmenstein_runtime>  (292) 
9.489284992218018

>  <fragmenstein_outcome>  (292) 
too moved

>  <fragmenstein_mode>  (292) 
expansion

>  <fragmenstein_error>  (292) 


$$$$
C19402-P13
     RDKit          3D

 29 31  0  0  0  0  0  0  0  0999 V2000
   -9.4994   -6.0383   25.8686 C   0  0  0  0  0  0  0  0  0  0  0  0
   -9.5533   -4.6847   26.5160 C   0  0  0  0  0  0  0  0  0  0  0  0
   -8.9340   -4.5509   27.7814 C   0  0  0  0  0  0  0  0  0  0  0  0
   -8.9405   -3.3228   28.3927 C   0  0  0  0  0  0  0  0  0  0  0  0
   -9.5247   -2.2370   27.7991 C   0  0  0  0  0  0  0  0  0  0  0  0
  -10.1596   -2.3357   26.5738 C   0  0  0  0  0  0  0  0  0  0  0  0
  -10.2033   -3.5744   25.9099 C   0  0  0  0  0  0  0  0  0  0  0  0
  -10.8658   -3.6996   24.6624 N   0  0  0  0  0  0  0  0  0  0  0  0
  -11.6069   -2.7343   23.8817 C   0  0  0  0  0  0  0  0  0  0  0  0
  -11.9176   -1.6038   24.1271 O   0  0  0  0  0  0  0  0  0  0  0  0
  -11.9775   -3.2552   22.5238 C   0  0  0  0  0  0  0  0  0  0  0  0
  -12.0922   -2.4520   21.3519 C   0  0  0  0  0  0  0  0  0  0  0  0
  -12.4630   -3.2866   20.3299 C   0  0  0  0  0  0  0  0  0  0  0  0
  -12.5612   -4.5159   20.9025 N   0  0  0  0  0  0  0  0  0  0  0  0
  -12.2468   -4.5426   22.2207 N   0  0  0  0  0  0  0  0  0  0  0  0
   -9.4703   -1.1353   28.5991 O   0  0  0  0  0  0  0  0  0  0  0  0
   -9.0424   -1.7443   29.8325 C   0  0  0  0  0  0  0  0  0  0  0  0
   -8.4634   -3.0489   29.6349 O   0  0  0  0  0  0  0  0  0  0  0  0
   -9.0991   -5.9759   24.8539 H   0  0  0  0  0  0  0  0  0  0  0  0
   -8.8636   -6.7349   26.4258 H   0  0  0  0  0  0  0  0  0  0  0  0
  -10.5053   -6.4689   25.8280 H   0  0  0  0  0  0  0  0  0  0  0  0
   -8.4654   -5.3949   28.2761 H   0  0  0  0  0  0  0  0  0  0  0  0
  -10.6652   -1.4659   26.1786 H   0  0  0  0  0  0  0  0  0  0  0  0
  -10.8629   -4.5883   24.1729 H   0  0  0  0  0  0  0  0  0  0  0  0
  -11.8889   -1.3960   21.3208 H   0  0  0  0  0  0  0  0  0  0  0  0
  -12.6552   -3.1168   19.2827 H   0  0  0  0  0  0  0  0  0  0  0  0
  -12.8204   -5.3903   20.4589 H   0  0  0  0  0  0  0  0  0  0  0  0
   -8.3205   -1.1116   30.3529 H   0  0  0  0  0  0  0  0  0  0  0  0
   -9.9153   -1.8462   30.4921 H   0  0  0  0  0  0  0  0  0  0  0  0
  1  2  1  0
  2  3  2  0
  3  4  1  0
  4  5  2  0
  5  6  1  0
  6  7  2  0
  7  8  1  0
  8  9  1  0
  9 10  2  0
  9 11  1  0
 11 12  1  0
 12 13  2  0
 13 14  1  0
 14 15  1  0
  5 16  1  0
 16 17  1  0
 17 18  1  0
  7  2  1  0
 15 11  2  0
 18  4  1  0
  1 19  1  0
  1 20  1  0
  1 21  1  0
  3 22  1  0
  6 23  1  0
  8 24  1  0
 12 25  1  0
 13 26  1  0
 14 27  1  0
 17 28  1  0
 17 29  1  0
M  END
>  <Energy>  (293) 
54.562300304175281

>  <compound_id>  (293) 
19402

>  <target_id>  (293) 
1

>  <reference_id>  (293) 
13

>  <inspiration_ids>  (293) 
[13, 127]

>  <energy_score>  (293) 
-42.141751320906565

>  <distance_score>  (293) 
10.730127206389907

>  <path>  (293) 
/opt/xchem-fragalysis-2/maxwin/BulkDock/SCRATCH/511020/C19402-P13/C19402-P13.minimised.mol

>  <scratch_subdir>  (293) 
/opt/xchem-fragalysis-2/maxwin/BulkDock/SCRATCH/511020/C19402-P13

>  <fragmenstein_runtime>  (293) 
7.363949775695801

>  <fragmenstein_outcome>  (293) 
too moved

>  <fragmenstein_mode>  (293) 
expansion

>  <fragmenstein_error>  (293) 


$$$$
C19402-P127
     RDKit          3D

 29 31  0  0  0  0  0  0  0  0999 V2000
   -4.2452    2.6459   21.7758 C   0  0  0  0  0  0  0  0  0  0  0  0
   -4.5339    3.1768   20.3880 C   0  0  0  0  0  0  0  0  0  0  0  0
   -3.9345    4.4955   20.4956 C   0  0  0  0  0  0  0  0  0  0  0  0
   -4.1813    5.3955   19.5442 C   0  0  0  0  0  0  0  0  0  0  0  0
   -5.1138    5.0869   18.6141 C   0  0  0  0  0  0  0  0  0  0  0  0
   -5.7219    3.8246   18.4958 C   0  0  0  0  0  0  0  0  0  0  0  0
   -5.3379    2.6906   19.2052 C   0  0  0  0  0  0  0  0  0  0  0  0
   -6.0921    1.3600   18.6618 N   0  0  0  0  0  0  0  0  0  0  0  0
   -7.6875    0.8876   18.7298 C   0  0  0  0  0  0  0  0  0  0  0  0
   -8.4103    1.5249   19.3059 O   0  0  0  0  0  0  0  0  0  0  0  0
   -8.5457   -0.6031   18.1592 C   0  0  0  0  0  0  0  0  0  0  0  0
   -9.8310   -0.9422   17.4599 C   0  0  0  0  0  0  0  0  0  0  0  0
  -10.6152   -1.8943   18.0560 C   0  0  0  0  0  0  0  0  0  0  0  0
   -9.8603   -2.1483   19.1389 N   0  0  0  0  0  0  0  0  0  0  0  0
   -8.6984   -1.5002   19.1424 N   0  0  0  0  0  0  0  0  0  0  0  0
   -5.3402    6.1609   17.8045 O   0  0  0  0  0  0  0  0  0  0  0  0
   -4.3048    7.0616   18.2358 C   0  0  0  0  0  0  0  0  0  0  0  0
   -3.6959    6.6508   19.4711 O   0  0  0  0  0  0  0  0  0  0  0  0
   -4.8948    1.8339   21.8920 H   0  0  0  0  0  0  0  0  0  0  0  0
   -4.5101    3.3831   22.5492 H   0  0  0  0  0  0  0  0  0  0  0  0
   -3.2193    2.4208   22.0559 H   0  0  0  0  0  0  0  0  0  0  0  0
   -3.3077    4.7852   21.3354 H   0  0  0  0  0  0  0  0  0  0  0  0
   -6.4953    3.7544   17.7657 H   0  0  0  0  0  0  0  0  0  0  0  0
   -5.6024    0.7271   18.0377 H   0  0  0  0  0  0  0  0  0  0  0  0
  -10.3139   -0.4885   16.6439 H   0  0  0  0  0  0  0  0  0  0  0  0
  -11.6098   -2.2736   17.8994 H   0  0  0  0  0  0  0  0  0  0  0  0
  -10.0956   -2.6628   19.9840 H   0  0  0  0  0  0  0  0  0  0  0  0
   -3.5342    7.1221   17.4568 H   0  0  0  0  0  0  0  0  0  0  0  0
   -4.7392    8.0582   18.3706 H   0  0  0  0  0  0  0  0  0  0  0  0
  1  2  1  0
  2  3  2  0
  3  4  1  0
  4  5  2  0
  5  6  1  0
  6  7  2  0
  7  8  1  0
  8  9  1  0
  9 10  2  0
  9 11  1  0
 11 12  1  0
 12 13  2  0
 13 14  1  0
 14 15  1  0
  5 16  1  0
 16 17  1  0
 17 18  1  0
  7  2  1  0
 15 11  2  0
 18  4  1  0
  1 19  1  0
  1 20  1  0
  1 21  1  0
  3 22  1  0
  6 23  1  0
  8 24  1  0
 12 25  1  0
 13 26  1  0
 14 27  1  0
 17 28  1  0
 17 29  1  0
M  END
>  <Energy>  (294) 
270.41408427091403

>  <compound_id>  (294) 
19402

>  <target_id>  (294) 
1

>  <reference_id>  (294) 
127

>  <inspiration_ids>  (294) 
[13, 127]

>  <energy_score>  (294) 
173.71003264583578

>  <distance_score>  (294) 
10.023775764685249

>  <path>  (294) 
/opt/xchem-fragalysis-2/maxwin/BulkDock/SCRATCH/511020/C19402-P127/C19402-P127.minimised.mol

>  <scratch_subdir>  (294) 
/opt/xchem-fragalysis-2/maxwin/BulkDock/SCRATCH/511020/C19402-P127

>  <fragmenstein_runtime>  (294) 
5.3952531814575195

>  <fragmenstein_outcome>  (294) 
too moved

>  <fragmenstein_mode>  (294) 
expansion

>  <fragmenstein_error>  (294) 


$$$$
C57187-P13
     RDKit          3D

 50 53  0  0  0  0  0  0  0  0999 V2000
   -4.3026   -3.4275   21.7057 C   0  0  0  0  0  0  0  0  0  0  0  0
   -3.4947   -1.8039   22.0454 N   0  0  0  0  0  0  0  0  0  0  0  0
   -4.0107   -0.0883   21.1711 C   0  0  0  0  0  0  0  0  0  0  0  0
   -5.0547    1.5602   20.3131 C   0  0  0  0  0  0  0  0  0  0  0  0
   -6.2658    1.1328   19.6779 N   0  0  0  0  0  0  0  0  0  0  0  0
   -7.0944    2.1659   19.4887 N   0  0  0  0  0  0  0  0  0  0  0  0
   -6.4398    3.1209   18.8270 C   0  0  0  0  0  0  0  0  0  0  0  0
   -5.1427    2.6455   18.9539 C   0  0  0  0  0  0  0  0  0  0  0  0
   -4.7015    2.7074   17.4070 C   0  0  0  0  0  0  0  0  0  0  0  0
   -5.9934    3.1099   16.6010 C   0  0  0  0  0  0  0  0  0  0  0  0
   -6.9106    3.7872   17.6083 C   0  0  0  0  0  0  0  0  0  0  0  0
   -2.2313   -1.9344   23.2588 C   0  0  0  0  0  0  0  0  0  0  0  0
   -1.1364   -2.1683   22.7481 O   0  0  0  0  0  0  0  0  0  0  0  0
   -2.7297   -1.5235   25.2508 C   0  0  0  0  0  0  0  0  0  0  0  0
   -2.5000    0.2148   25.8270 C   0  0  0  0  0  0  0  0  0  0  0  0
   -1.2730    0.6887   26.4121 C   0  0  0  0  0  0  0  0  0  0  0  0
   -0.9316    2.0337   26.6280 C   0  0  0  0  0  0  0  0  0  0  0  0
   -1.8255    2.9427   26.1743 C   0  0  0  0  0  0  0  0  0  0  0  0
   -3.0769    2.5442   25.7957 C   0  0  0  0  0  0  0  0  0  0  0  0
   -3.4802    1.2176   25.7801 C   0  0  0  0  0  0  0  0  0  0  0  0
   -3.7785    3.5757   25.2409 O   0  0  0  0  0  0  0  0  0  0  0  0
   -2.6857    4.4891   25.0062 C   0  0  0  0  0  0  0  0  0  0  0  0
   -1.5835    4.2500   25.9041 O   0  0  0  0  0  0  0  0  0  0  0  0
   -2.1092   -2.0976   26.7772 N   0  0  0  0  0  0  0  0  0  0  0  0
   -2.9817   -1.7735   27.8580 C   0  0  0  0  0  0  0  0  0  0  0  0
   -0.8162   -1.9360   27.5180 C   0  0  0  0  0  0  0  0  0  0  0  0
   -4.6226   -3.8096   20.6784 H   0  0  0  0  0  0  0  0  0  0  0  0
   -3.7695   -4.2841   21.9715 H   0  0  0  0  0  0  0  0  0  0  0  0
   -5.3260   -3.2990   21.9943 H   0  0  0  0  0  0  0  0  0  0  0  0
   -3.0971    0.1708   21.7180 H   0  0  0  0  0  0  0  0  0  0  0  0
   -4.1305   -0.5612   20.2493 H   0  0  0  0  0  0  0  0  0  0  0  0
   -8.0934    2.0115   19.5323 H   0  0  0  0  0  0  0  0  0  0  0  0
   -4.3233    1.7685   17.0111 H   0  0  0  0  0  0  0  0  0  0  0  0
   -3.9802    3.5148   17.2332 H   0  0  0  0  0  0  0  0  0  0  0  0
   -5.7897    3.7952   15.7754 H   0  0  0  0  0  0  0  0  0  0  0  0
   -6.4710    2.2114   16.1941 H   0  0  0  0  0  0  0  0  0  0  0  0
   -7.9663    3.6172   17.3811 H   0  0  0  0  0  0  0  0  0  0  0  0
   -6.7210    4.8640   17.6609 H   0  0  0  0  0  0  0  0  0  0  0  0
   -3.7529   -1.8112   25.3621 H   0  0  0  0  0  0  0  0  0  0  0  0
   -0.4392    0.0375   26.5862 H   0  0  0  0  0  0  0  0  0  0  0  0
    0.0575    2.3218   26.9623 H   0  0  0  0  0  0  0  0  0  0  0  0
   -4.5205    1.0506   25.5453 H   0  0  0  0  0  0  0  0  0  0  0  0
   -3.0156    5.5251   25.0796 H   0  0  0  0  0  0  0  0  0  0  0  0
   -2.3333    4.3524   23.9725 H   0  0  0  0  0  0  0  0  0  0  0  0
   -3.9559   -2.1572   27.5938 H   0  0  0  0  0  0  0  0  0  0  0  0
   -2.6766   -2.2978   28.7801 H   0  0  0  0  0  0  0  0  0  0  0  0
   -2.9564   -0.7168   28.1083 H   0  0  0  0  0  0  0  0  0  0  0  0
    0.1231   -1.7546   27.0148 H   0  0  0  0  0  0  0  0  0  0  0  0
   -0.6396   -2.8711   28.0724 H   0  0  0  0  0  0  0  0  0  0  0  0
   -0.8374   -1.1521   28.2934 H   0  0  0  0  0  0  0  0  0  0  0  0
  1  2  1  0
  2  3  1  0
  3  4  1  0
  4  5  2  0
  5  6  1  0
  6  7  1  0
  7  8  2  0
  8  9  1  0
  9 10  1  0
 10 11  1  0
  2 12  1  0
 12 13  2  0
 12 14  1  0
 14 15  1  0
 15 16  2  0
 16 17  1  0
 17 18  2  0
 18 19  1  0
 19 20  2  0
 19 21  1  0
 21 22  1  0
 22 23  1  0
 14 24  1  0
 24 25  1  0
 24 26  1  0
  8  4  1  0
 20 15  1  0
 11  7  1  0
 23 18  1  0
  1 27  1  0
  1 28  1  0
  1 29  1  0
  3 30  1  0
  3 31  1  0
  6 32  1  0
  9 33  1  0
  9 34  1  0
 10 35  1  0
 10 36  1  0
 11 37  1  0
 11 38  1  0
 14 39  1  0
 16 40  1  0
 17 41  1  0
 20 42  1  0
 22 43  1  0
 22 44  1  0
 25 45  1  0
 25 46  1  0
 25 47  1  0
 26 48  1  0
 26 49  1  0
 26 50  1  0
M  END
>  <Energy>  (295) 
831.19393441682962

>  <compound_id>  (295) 
57187

>  <target_id>  (295) 
1

>  <reference_id>  (295) 
13

>  <inspiration_ids>  (295) 
[13, 127]

>  <energy_score>  (295) 
652.6654122473338

>  <distance_score>  (295) 
8.890148882015879

>  <path>  (295) 
/opt/xchem-fragalysis-2/maxwin/BulkDock/SCRATCH/511020/C57187-P13/C57187-P13.minimised.mol

>  <scratch_subdir>  (295) 
/opt/xchem-fragalysis-2/maxwin/BulkDock/SCRATCH/511020/C57187-P13

>  <fragmenstein_runtime>  (295) 
16.331411838531494

>  <fragmenstein_outcome>  (295) 
too moved

>  <fragmenstein_mode>  (295) 
expansion

>  <fragmenstein_error>  (295) 


$$$$
C57187-P127
     RDKit          3D

 50 53  0  0  0  0  0  0  0  0999 V2000
   -2.2225   -2.8002   16.3754 C   0  0  0  0  0  0  0  0  0  0  0  0
   -3.0689   -3.2743   16.8541 N   0  0  0  0  0  0  0  0  0  0  0  0
   -1.7771   -2.7247   15.0327 C   0  0  0  0  0  0  0  0  0  0  0  0
   -2.4272   -1.4327   13.1679 C   0  0  0  0  0  0  0  0  0  0  0  0
   -1.9343   -0.0659   12.0053 N   0  0  0  0  0  0  0  0  0  0  0  0
   -2.7456   -0.2174   10.1262 N   0  0  0  0  0  0  0  0  0  0  0  0
   -4.0497   -0.3749   10.3246 C   0  0  0  0  0  0  0  0  0  0  0  0
   -4.0012   -0.5703   12.0153 C   0  0  0  0  0  0  0  0  0  0  0  0
   -5.9291   -0.4013   11.9280 C   0  0  0  0  0  0  0  0  0  0  0  0
   -6.3551   -0.3649    9.9577 C   0  0  0  0  0  0  0  0  0  0  0  0
   -5.0115   -0.2878    9.2086 C   0  0  0  0  0  0  0  0  0  0  0  0
   -3.2427   -2.5077   18.9787 C   0  0  0  0  0  0  0  0  0  0  0  0
   -4.0348   -1.5690   18.8673 O   0  0  0  0  0  0  0  0  0  0  0  0
   -2.9388   -2.6583   21.4253 C   0  0  0  0  0  0  0  0  0  0  0  0
   -3.1631   -1.4275   22.5327 C   0  0  0  0  0  0  0  0  0  0  0  0
   -2.5175    0.4136   22.2521 C   0  0  0  0  0  0  0  0  0  0  0  0
   -2.4974    1.8666   23.3821 C   0  0  0  0  0  0  0  0  0  0  0  0
   -2.9978    1.6450   24.9668 C   0  0  0  0  0  0  0  0  0  0  0  0
   -3.6126    0.0789   25.5617 C   0  0  0  0  0  0  0  0  0  0  0  0
   -3.6043   -1.6166   24.5546 C   0  0  0  0  0  0  0  0  0  0  0  0
   -3.1869    0.2754   26.9337 O   0  0  0  0  0  0  0  0  0  0  0  0
   -3.1959    1.7278   27.0749 C   0  0  0  0  0  0  0  0  0  0  0  0
   -2.6194    2.4557   25.9890 O   0  0  0  0  0  0  0  0  0  0  0  0
   -2.0561   -2.2678   23.3063 N   0  0  0  0  0  0  0  0  0  0  0  0
   -2.9318   -3.6161   24.2431 C   0  0  0  0  0  0  0  0  0  0  0  0
   -1.9325   -0.9265   24.9563 C   0  0  0  0  0  0  0  0  0  0  0  0
   -2.1449   -3.9595   16.2073 H   0  0  0  0  0  0  0  0  0  0  0  0
   -2.1160   -2.2508   17.4861 H   0  0  0  0  0  0  0  0  0  0  0  0
   -1.2295   -2.9995   16.9720 H   0  0  0  0  0  0  0  0  0  0  0  0
   -1.4505   -3.6455   14.3514 H   0  0  0  0  0  0  0  0  0  0  0  0
   -0.6255   -2.4724   15.2044 H   0  0  0  0  0  0  0  0  0  0  0  0
   -2.2963   -0.9355    9.5613 H   0  0  0  0  0  0  0  0  0  0  0  0
   -6.5634   -0.4921   12.8039 H   0  0  0  0  0  0  0  0  0  0  0  0
   -6.2693    0.5924   12.2478 H   0  0  0  0  0  0  0  0  0  0  0  0
   -7.0954    0.4152    9.7271 H   0  0  0  0  0  0  0  0  0  0  0  0
   -6.6689   -1.2530    9.3783 H   0  0  0  0  0  0  0  0  0  0  0  0
   -4.8689   -1.1461    8.5375 H   0  0  0  0  0  0  0  0  0  0  0  0
   -4.9029    0.5830    8.5594 H   0  0  0  0  0  0  0  0  0  0  0  0
   -1.7972   -2.5523   21.8453 H   0  0  0  0  0  0  0  0  0  0  0  0
   -1.7669    0.9779   21.7329 H   0  0  0  0  0  0  0  0  0  0  0  0
   -1.9684    2.7705   23.0907 H   0  0  0  0  0  0  0  0  0  0  0  0
   -4.0190   -2.2842   25.2940 H   0  0  0  0  0  0  0  0  0  0  0  0
   -2.6382    1.9720   27.9835 H   0  0  0  0  0  0  0  0  0  0  0  0
   -4.2350    2.0564   27.1771 H   0  0  0  0  0  0  0  0  0  0  0  0
   -2.3985   -4.6019   24.2858 H   0  0  0  0  0  0  0  0  0  0  0  0
   -3.0568   -3.4638   25.2935 H   0  0  0  0  0  0  0  0  0  0  0  0
   -3.8614   -3.7518   23.6567 H   0  0  0  0  0  0  0  0  0  0  0  0
   -2.4560   -1.4788   25.9620 H   0  0  0  0  0  0  0  0  0  0  0  0
   -1.1798   -0.7297   25.9557 H   0  0  0  0  0  0  0  0  0  0  0  0
   -1.8696    0.1408   25.1217 H   0  0  0  0  0  0  0  0  0  0  0  0
  1  2  1  0
  2  3  1  0
  3  4  1  0
  4  5  2  0
  5  6  1  0
  6  7  1  0
  7  8  2  0
  8  9  1  0
  9 10  1  0
 10 11  1  0
  2 12  1  0
 12 13  2  0
 12 14  1  0
 14 15  1  0
 15 16  2  0
 16 17  1  0
 17 18  2  0
 18 19  1  0
 19 20  2  0
 19 21  1  0
 21 22  1  0
 22 23  1  0
 14 24  1  0
 24 25  1  0
 24 26  1  0
  8  4  1  0
 20 15  1  0
 11  7  1  0
 23 18  1  0
  1 27  1  0
  1 28  1  0
  1 29  1  0
  3 30  1  0
  3 31  1  0
  6 32  1  0
  9 33  1  0
  9 34  1  0
 10 35  1  0
 10 36  1  0
 11 37  1  0
 11 38  1  0
 14 39  1  0
 16 40  1  0
 17 41  1  0
 20 42  1  0
 22 43  1  0
 22 44  1  0
 25 45  1  0
 25 46  1  0
 25 47  1  0
 26 48  1  0
 26 49  1  0
 26 50  1  0
M  END
>  <Energy>  (296) 
4344.0720402790821

>  <compound_id>  (296) 
57187

>  <target_id>  (296) 
1

>  <reference_id>  (296) 
127

>  <inspiration_ids>  (296) 
[13, 127]

>  <energy_score>  (296) 
4165.54351810964

>  <distance_score>  (296) 
6.242232217979615

>  <path>  (296) 
/opt/xchem-fragalysis-2/maxwin/BulkDock/SCRATCH/511020/C57187-P127/C57187-P127.minimised.mol

>  <scratch_subdir>  (296) 
/opt/xchem-fragalysis-2/maxwin/BulkDock/SCRATCH/511020/C57187-P127

>  <fragmenstein_runtime>  (296) 
21.327346086502075

>  <fragmenstein_outcome>  (296) 
too moved

>  <fragmenstein_mode>  (296) 
expansion

>  <fragmenstein_error>  (296) 


$$$$
C19429-P13
     RDKit          3D

 37 38  0  0  0  0  0  0  0  0999 V2000
   -6.5384   -0.2004    9.5625 C   0  0  0  0  0  0  0  0  0  0  0  0
   -7.0214    0.2816   11.0525 C   0  0  0  0  0  0  0  0  0  0  0  0
   -6.3011   -0.4609   12.9521 S   0  0  0  0  0  0  0  0  0  0  0  0
   -5.1886   -0.5954   12.0052 O   0  0  0  0  0  0  0  0  0  0  0  0
   -7.6702   -0.9559   12.8060 O   0  0  0  0  0  0  0  0  0  0  0  0
   -5.5144    0.3609   15.0703 N   0  0  0  0  0  0  0  0  0  0  0  0
   -6.5164    1.4618   13.7986 C   0  0  0  0  0  0  0  0  0  0  0  0
   -4.4685    0.1901   17.0257 C   0  0  0  0  0  0  0  0  0  0  0  0
   -4.5728   -0.9058   18.6445 C   0  0  0  0  0  0  0  0  0  0  0  0
   -4.2458   -0.5377   20.6190 C   0  0  0  0  0  0  0  0  0  0  0  0
   -3.9028    0.1967   21.5999 C   0  0  0  0  0  0  0  0  0  0  0  0
   -3.9599    2.0569   21.7961 N   0  0  0  0  0  0  0  0  0  0  0  0
   -3.0560    2.9755   22.5235 C   0  0  0  0  0  0  0  0  0  0  0  0
   -2.0226    2.7613   23.0969 O   0  0  0  0  0  0  0  0  0  0  0  0
   -3.5200    4.3744   22.5875 C   0  0  0  0  0  0  0  0  0  0  0  0
   -4.2065    5.1661   21.6403 C   0  0  0  0  0  0  0  0  0  0  0  0
   -4.2714    6.4221   22.1968 C   0  0  0  0  0  0  0  0  0  0  0  0
   -3.6200    6.3389   23.3886 N   0  0  0  0  0  0  0  0  0  0  0  0
   -3.1899    5.1127   23.6642 N   0  0  0  0  0  0  0  0  0  0  0  0
   -3.9391   -0.1798   20.3687 C   0  0  0  0  0  0  0  0  0  0  0  0
   -3.6385   -0.8134   18.3971 C   0  0  0  0  0  0  0  0  0  0  0  0
   -5.4587   -0.3142    9.4000 H   0  0  0  0  0  0  0  0  0  0  0  0
   -6.8692    0.5834    8.8646 H   0  0  0  0  0  0  0  0  0  0  0  0
   -7.0035   -1.0976    9.1542 H   0  0  0  0  0  0  0  0  0  0  0  0
   -8.0344   -0.1217   10.9471 H   0  0  0  0  0  0  0  0  0  0  0  0
   -7.3628    1.2741   10.9879 H   0  0  0  0  0  0  0  0  0  0  0  0
   -6.4912    1.4541   12.7246 H   0  0  0  0  0  0  0  0  0  0  0  0
   -7.5441    1.4768   13.8516 H   0  0  0  0  0  0  0  0  0  0  0  0
   -6.2071    2.4483   13.6443 H   0  0  0  0  0  0  0  0  0  0  0  0
   -4.3087   -2.2623   18.8315 H   0  0  0  0  0  0  0  0  0  0  0  0
   -3.8539   -1.5187   21.6278 H   0  0  0  0  0  0  0  0  0  0  0  0
   -4.7964    2.5707   21.5025 H   0  0  0  0  0  0  0  0  0  0  0  0
   -4.5792    4.8725   20.6686 H   0  0  0  0  0  0  0  0  0  0  0  0
   -4.6881    7.3531   21.8418 H   0  0  0  0  0  0  0  0  0  0  0  0
   -3.4496    7.0647   24.0789 H   0  0  0  0  0  0  0  0  0  0  0  0
   -4.7217    1.1774   20.3015 H   0  0  0  0  0  0  0  0  0  0  0  0
   -2.6754   -1.3916   18.1466 H   0  0  0  0  0  0  0  0  0  0  0  0
  1  2  1  0
  2  3  1  0
  3  4  2  0
  3  5  2  0
  3  6  1  0
  6  7  1  0
  6  8  1  0
  8  9  2  0
  9 10  1  0
 10 11  2  0
 11 12  1  0
 12 13  1  0
 13 14  2  0
 13 15  1  0
 15 16  1  0
 16 17  2  0
 17 18  1  0
 18 19  1  0
 11 20  1  0
 20 21  2  0
 21  8  1  0
 19 15  2  0
  1 22  1  0
  1 23  1  0
  1 24  1  0
  2 25  1  0
  2 26  1  0
  7 27  1  0
  7 28  1  0
  7 29  1  0
  9 30  1  0
 10 31  1  0
 12 32  1  0
 16 33  1  0
 17 34  1  0
 18 35  1  0
 20 36  1  0
 21 37  1  0
M  END
>  <Energy>  (297) 
2304.693570799448

>  <compound_id>  (297) 
19429

>  <target_id>  (297) 
1

>  <reference_id>  (297) 
13

>  <inspiration_ids>  (297) 
[13, 127]

>  <energy_score>  (297) 
2235.919507542325

>  <distance_score>  (297) 
6.119487766088683

>  <path>  (297) 
/opt/xchem-fragalysis-2/maxwin/BulkDock/SCRATCH/511020/C19429-P13/C19429-P13.minimised.mol

>  <scratch_subdir>  (297) 
/opt/xchem-fragalysis-2/maxwin/BulkDock/SCRATCH/511020/C19429-P13

>  <fragmenstein_runtime>  (297) 
155.10709881782532

>  <fragmenstein_outcome>  (297) 
too moved

>  <fragmenstein_mode>  (297) 
expansion

>  <fragmenstein_error>  (297) 


$$$$
C19429-P127
     RDKit          3D

 37 38  0  0  0  0  0  0  0  0999 V2000
   -6.7499   -1.2204    8.8012 C   0  0  0  0  0  0  0  0  0  0  0  0
   -6.3287   -0.3876   10.0875 C   0  0  0  0  0  0  0  0  0  0  0  0
   -6.3209   -0.4283   12.4605 S   0  0  0  0  0  0  0  0  0  0  0  0
   -6.5690    0.8375   13.1587 O   0  0  0  0  0  0  0  0  0  0  0  0
   -7.7298   -0.6639   12.3124 O   0  0  0  0  0  0  0  0  0  0  0  0
   -5.8840   -2.2804   14.0726 N   0  0  0  0  0  0  0  0  0  0  0  0
   -6.5045   -1.5239   15.0215 C   0  0  0  0  0  0  0  0  0  0  0  0
   -5.2103   -4.1602   14.6321 C   0  0  0  0  0  0  0  0  0  0  0  0
   -4.5112   -4.0918   16.2126 C   0  0  0  0  0  0  0  0  0  0  0  0
   -4.4882   -4.4111   18.0269 C   0  0  0  0  0  0  0  0  0  0  0  0
   -4.8221   -5.2258   19.0209 C   0  0  0  0  0  0  0  0  0  0  0  0
   -4.7450   -5.0132   20.9206 N   0  0  0  0  0  0  0  0  0  0  0  0
   -4.0051   -3.6153   22.0240 C   0  0  0  0  0  0  0  0  0  0  0  0
   -3.5052   -2.6061   21.5460 O   0  0  0  0  0  0  0  0  0  0  0  0
   -3.7871   -3.5701   23.6142 C   0  0  0  0  0  0  0  0  0  0  0  0
   -3.0126   -2.4486   23.9774 C   0  0  0  0  0  0  0  0  0  0  0  0
   -3.2851   -1.8967   25.2276 C   0  0  0  0  0  0  0  0  0  0  0  0
   -3.2878   -3.0743   25.7235 N   0  0  0  0  0  0  0  0  0  0  0  0
   -3.1031   -4.1713   24.6006 N   0  0  0  0  0  0  0  0  0  0  0  0
   -5.1306   -6.0424   17.5539 C   0  0  0  0  0  0  0  0  0  0  0  0
   -5.1925   -5.6006   15.6885 C   0  0  0  0  0  0  0  0  0  0  0  0
   -5.8895   -1.7483    8.3796 H   0  0  0  0  0  0  0  0  0  0  0  0
   -6.9565   -0.4696    8.0215 H   0  0  0  0  0  0  0  0  0  0  0  0
   -7.6370   -1.8575    8.7697 H   0  0  0  0  0  0  0  0  0  0  0  0
   -7.0757    0.4219    9.9703 H   0  0  0  0  0  0  0  0  0  0  0  0
   -5.2921   -0.1741    9.7084 H   0  0  0  0  0  0  0  0  0  0  0  0
   -7.2980   -1.8876   14.4646 H   0  0  0  0  0  0  0  0  0  0  0  0
   -7.1780   -1.6216   15.8496 H   0  0  0  0  0  0  0  0  0  0  0  0
   -6.0800   -0.5433   14.8797 H   0  0  0  0  0  0  0  0  0  0  0  0
   -3.4719   -4.6200   16.1178 H   0  0  0  0  0  0  0  0  0  0  0  0
   -4.0139   -3.5929   18.6512 H   0  0  0  0  0  0  0  0  0  0  0  0
   -5.0272   -5.7853   21.5065 H   0  0  0  0  0  0  0  0  0  0  0  0
   -2.2834   -2.0829   23.2687 H   0  0  0  0  0  0  0  0  0  0  0  0
   -2.9541   -1.0260   25.7853 H   0  0  0  0  0  0  0  0  0  0  0  0
   -3.1547   -3.2774   26.7019 H   0  0  0  0  0  0  0  0  0  0  0  0
   -5.3793   -7.1090   17.6849 H   0  0  0  0  0  0  0  0  0  0  0  0
   -5.3477   -6.5254   15.1003 H   0  0  0  0  0  0  0  0  0  0  0  0
  1  2  1  0
  2  3  1  0
  3  4  2  0
  3  5  2  0
  3  6  1  0
  6  7  1  0
  6  8  1  0
  8  9  2  0
  9 10  1  0
 10 11  2  0
 11 12  1  0
 12 13  1  0
 13 14  2  0
 13 15  1  0
 15 16  1  0
 16 17  2  0
 17 18  1  0
 18 19  1  0
 11 20  1  0
 20 21  2  0
 21  8  1  0
 19 15  2  0
  1 22  1  0
  1 23  1  0
  1 24  1  0
  2 25  1  0
  2 26  1  0
  7 27  1  0
  7 28  1  0
  7 29  1  0
  9 30  1  0
 10 31  1  0
 12 32  1  0
 16 33  1  0
 17 34  1  0
 18 35  1  0
 20 36  1  0
 21 37  1  0
M  END
>  <Energy>  (298) 
1440.2761984145232

>  <compound_id>  (298) 
19429

>  <target_id>  (298) 
1

>  <reference_id>  (298) 
127

>  <inspiration_ids>  (298) 
[13, 127]

>  <energy_score>  (298) 
1371.5021351573855

>  <distance_score>  (298) 
6.689411510185201

>  <path>  (298) 
/opt/xchem-fragalysis-2/maxwin/BulkDock/SCRATCH/511020/C19429-P127/C19429-P127.minimised.mol

>  <scratch_subdir>  (298) 
/opt/xchem-fragalysis-2/maxwin/BulkDock/SCRATCH/511020/C19429-P127

>  <fragmenstein_runtime>  (298) 
161.8772313594818

>  <fragmenstein_outcome>  (298) 
too moved

>  <fragmenstein_mode>  (298) 
expansion

>  <fragmenstein_error>  (298) 


$$$$
C19431-P13
     RDKit          3D

 36 38  0  0  0  0  0  0  0  0999 V2000
   -1.8897   -3.3305   21.4188 O   0  0  0  0  0  0  0  0  0  0  0  0
   -3.2129   -2.8860   21.8328 S   0  0  0  0  0  0  0  0  0  0  0  0
   -4.2209   -3.9009   21.6699 O   0  0  0  0  0  0  0  0  0  0  0  0
   -4.1004   -1.1696   20.5818 C   0  0  0  0  0  0  0  0  0  0  0  0
   -4.1904   -0.8606   18.3726 C   0  0  0  0  0  0  0  0  0  0  0  0
   -4.6283    0.4074   16.6968 N   0  0  0  0  0  0  0  0  0  0  0  0
   -5.4570    0.0564   15.0125 C   0  0  0  0  0  0  0  0  0  0  0  0
   -5.8446   -1.3212   14.7568 N   0  0  0  0  0  0  0  0  0  0  0  0
   -6.1076   -0.5884   13.8724 C   0  0  0  0  0  0  0  0  0  0  0  0
   -6.2488   -0.5184   12.3176 C   0  0  0  0  0  0  0  0  0  0  0  0
   -6.8026    0.2785   11.4883 C   0  0  0  0  0  0  0  0  0  0  0  0
   -6.8046    1.3039   12.3460 C   0  0  0  0  0  0  0  0  0  0  0  0
   -6.5614    1.4971   13.7013 C   0  0  0  0  0  0  0  0  0  0  0  0
   -5.6800    0.6025   14.9584 C   0  0  0  0  0  0  0  0  0  0  0  0
   -2.7634   -2.6000   23.5057 N   0  0  0  0  0  0  0  0  0  0  0  0
   -3.1617   -2.0525   25.1233 C   0  0  0  0  0  0  0  0  0  0  0  0
   -2.5057   -0.8782   26.0927 C   0  0  0  0  0  0  0  0  0  0  0  0
   -1.9157   -1.1015   27.3836 C   0  0  0  0  0  0  0  0  0  0  0  0
   -1.6245    0.1404   27.8898 C   0  0  0  0  0  0  0  0  0  0  0  0
   -2.0815    1.0296   26.9689 N   0  0  0  0  0  0  0  0  0  0  0  0
   -2.6006    0.4527   25.8733 N   0  0  0  0  0  0  0  0  0  0  0  0
   -3.7026   -0.4092   21.2458 H   0  0  0  0  0  0  0  0  0  0  0  0
   -3.9464   -2.4167   20.1285 H   0  0  0  0  0  0  0  0  0  0  0  0
   -3.1407   -0.9669   18.0691 H   0  0  0  0  0  0  0  0  0  0  0  0
   -4.2882   -1.9252   18.3923 H   0  0  0  0  0  0  0  0  0  0  0  0
   -4.1388    0.8034   14.6247 H   0  0  0  0  0  0  0  0  0  0  0  0
   -5.2903   -0.5740   11.7723 H   0  0  0  0  0  0  0  0  0  0  0  0
   -7.0973    0.2007   10.4646 H   0  0  0  0  0  0  0  0  0  0  0  0
   -7.6157    2.0856   12.1554 H   0  0  0  0  0  0  0  0  0  0  0  0
   -6.9481    2.4989   13.7420 H   0  0  0  0  0  0  0  0  0  0  0  0
   -1.7837   -2.2782   23.4683 H   0  0  0  0  0  0  0  0  0  0  0  0
   -4.1772   -1.9493   25.3595 H   0  0  0  0  0  0  0  0  0  0  0  0
   -2.9251   -2.9326   25.6798 H   0  0  0  0  0  0  0  0  0  0  0  0
   -1.7340   -2.0538   27.8590 H   0  0  0  0  0  0  0  0  0  0  0  0
   -1.1776    0.4624   28.8178 H   0  0  0  0  0  0  0  0  0  0  0  0
   -2.1002    2.0435   27.0319 H   0  0  0  0  0  0  0  0  0  0  0  0
  1  2  2  0
  2  3  2  0
  2  4  1  0
  4  5  1  0
  5  6  1  0
  6  7  1  0
  7  8  2  0
  8  9  1  0
  9 10  2  0
 10 11  1  0
 11 12  2  0
 12 13  1  0
 13 14  2  0
  2 15  1  0
 15 16  1  0
 16 17  1  0
 17 18  1  0
 18 19  2  0
 19 20  1  0
 20 21  1  0
 14  6  1  0
 21 17  2  0
 14  9  1  0
  4 22  1  0
  4 23  1  0
  5 24  1  0
  5 25  1  0
  7 26  1  0
 10 27  1  0
 11 28  1  0
 12 29  1  0
 13 30  1  0
 15 31  1  0
 16 32  1  0
 16 33  1  0
 18 34  1  0
 19 35  1  0
 20 36  1  0
M  END
>  <Energy>  (299) 
1601.4932865395347

>  <compound_id>  (299) 
19431

>  <target_id>  (299) 
1

>  <reference_id>  (299) 
13

>  <inspiration_ids>  (299) 
[13, 127]

>  <energy_score>  (299) 
1638.5542001179504

>  <distance_score>  (299) 
7.11397664111488

>  <path>  (299) 
/opt/xchem-fragalysis-2/maxwin/BulkDock/SCRATCH/511020/C19431-P13/C19431-P13.minimised.mol

>  <scratch_subdir>  (299) 
/opt/xchem-fragalysis-2/maxwin/BulkDock/SCRATCH/511020/C19431-P13

>  <fragmenstein_runtime>  (299) 
18.742701292037964

>  <fragmenstein_outcome>  (299) 
too moved

>  <fragmenstein_mode>  (299) 
expansion

>  <fragmenstein_error>  (299) 


$$$$
C19431-P127
     RDKit          3D

 36 38  0  0  0  0  0  0  0  0999 V2000
   -3.6442   -5.5149   20.6627 O   0  0  0  0  0  0  0  0  0  0  0  0
   -4.3642   -4.3119   20.2364 S   0  0  0  0  0  0  0  0  0  0  0  0
   -5.7163   -4.1900   20.7749 O   0  0  0  0  0  0  0  0  0  0  0  0
   -4.6198   -4.5307   17.8808 C   0  0  0  0  0  0  0  0  0  0  0  0
   -4.6579   -3.6709   15.9444 C   0  0  0  0  0  0  0  0  0  0  0  0
   -5.1163   -1.9960   14.7121 N   0  0  0  0  0  0  0  0  0  0  0  0
   -3.6626   -0.5659   13.9630 C   0  0  0  0  0  0  0  0  0  0  0  0
   -2.6055   -1.0588   13.2009 N   0  0  0  0  0  0  0  0  0  0  0  0
   -2.8742   -2.5965   12.9068 C   0  0  0  0  0  0  0  0  0  0  0  0
   -4.0104   -1.1920   11.6142 C   0  0  0  0  0  0  0  0  0  0  0  0
   -4.7264   -1.2268    9.7078 C   0  0  0  0  0  0  0  0  0  0  0  0
   -6.3892   -2.3267   10.1282 C   0  0  0  0  0  0  0  0  0  0  0  0
   -5.7452   -3.9739   11.6275 C   0  0  0  0  0  0  0  0  0  0  0  0
   -4.7995   -3.5093   13.4502 C   0  0  0  0  0  0  0  0  0  0  0  0
   -3.4667   -3.0581   21.7134 N   0  0  0  0  0  0  0  0  0  0  0  0
   -3.1250   -3.2251   23.6594 C   0  0  0  0  0  0  0  0  0  0  0  0
   -3.2312   -2.1986   25.3508 C   0  0  0  0  0  0  0  0  0  0  0  0
   -2.7300   -2.3035   26.9039 C   0  0  0  0  0  0  0  0  0  0  0  0
   -2.4134   -1.1132   27.5332 C   0  0  0  0  0  0  0  0  0  0  0  0
   -2.6196   -0.2773   26.5353 N   0  0  0  0  0  0  0  0  0  0  0  0
   -3.2459   -0.8423   25.5127 N   0  0  0  0  0  0  0  0  0  0  0  0
   -5.6177   -4.9775   18.0524 H   0  0  0  0  0  0  0  0  0  0  0  0
   -4.1444   -5.5042   17.7079 H   0  0  0  0  0  0  0  0  0  0  0  0
   -5.2092   -3.2994   16.7248 H   0  0  0  0  0  0  0  0  0  0  0  0
   -3.6000   -3.7630   16.1557 H   0  0  0  0  0  0  0  0  0  0  0  0
   -3.5078    0.5220   14.4488 H   0  0  0  0  0  0  0  0  0  0  0  0
   -4.1635   -0.1896   11.9256 H   0  0  0  0  0  0  0  0  0  0  0  0
   -5.0084   -0.2958    9.2002 H   0  0  0  0  0  0  0  0  0  0  0  0
   -7.0939   -2.2412    9.1672 H   0  0  0  0  0  0  0  0  0  0  0  0
   -6.1974   -5.0087   11.7176 H   0  0  0  0  0  0  0  0  0  0  0  0
   -2.5098   -3.3185   21.4152 H   0  0  0  0  0  0  0  0  0  0  0  0
   -2.0524   -3.1172   23.4651 H   0  0  0  0  0  0  0  0  0  0  0  0
   -3.2736   -4.2847   23.8565 H   0  0  0  0  0  0  0  0  0  0  0  0
   -2.1558   -3.0467   27.4224 H   0  0  0  0  0  0  0  0  0  0  0  0
   -1.9473   -0.8677   28.4739 H   0  0  0  0  0  0  0  0  0  0  0  0
   -2.5103    0.7299   26.5261 H   0  0  0  0  0  0  0  0  0  0  0  0
  1  2  2  0
  2  3  2  0
  2  4  1  0
  4  5  1  0
  5  6  1  0
  6  7  1  0
  7  8  2  0
  8  9  1  0
  9 10  2  0
 10 11  1  0
 11 12  2  0
 12 13  1  0
 13 14  2  0
  2 15  1  0
 15 16  1  0
 16 17  1  0
 17 18  1  0
 18 19  2  0
 19 20  1  0
 20 21  1  0
 14  6  1  0
 21 17  2  0
 14  9  1  0
  4 22  1  0
  4 23  1  0
  5 24  1  0
  5 25  1  0
  7 26  1  0
 10 27  1  0
 11 28  1  0
 12 29  1  0
 13 30  1  0
 15 31  1  0
 16 32  1  0
 16 33  1  0
 18 34  1  0
 19 35  1  0
 20 36  1  0
M  END
>  <Energy>  (300) 
2831.1111033619677

>  <compound_id>  (300) 
19431

>  <target_id>  (300) 
1

>  <reference_id>  (300) 
127

>  <inspiration_ids>  (300) 
[13, 127]

>  <energy_score>  (300) 
2868.172016940346

>  <distance_score>  (300) 
7.71152141279312

>  <path>  (300) 
/opt/xchem-fragalysis-2/maxwin/BulkDock/SCRATCH/511020/C19431-P127/C19431-P127.minimised.mol

>  <scratch_subdir>  (300) 
/opt/xchem-fragalysis-2/maxwin/BulkDock/SCRATCH/511020/C19431-P127

>  <fragmenstein_runtime>  (300) 
16.415677070617676

>  <fragmenstein_outcome>  (300) 
too moved

>  <fragmenstein_mode>  (300) 
expansion

>  <fragmenstein_error>  (300) 


$$$$
C19433-P13
     RDKit          3D

 38 39  0  0  0  0  0  0  0  0999 V2000
   -8.0254   -7.0801   15.7646 C   0  0  0  0  0  0  0  0  0  0  0  0
   -6.6969   -7.1122   15.0458 C   0  0  0  0  0  0  0  0  0  0  0  0
   -5.3597   -7.8452   16.0094 S   0  0  0  0  0  0  0  0  0  0  0  0
   -4.2869   -8.0586   15.0546 O   0  0  0  0  0  0  0  0  0  0  0  0
   -5.9044   -8.9460   16.7765 O   0  0  0  0  0  0  0  0  0  0  0  0
   -4.8753   -6.5982   17.0621 N   0  0  0  0  0  0  0  0  0  0  0  0
   -4.2018   -5.5101   16.3074 C   0  0  0  0  0  0  0  0  0  0  0  0
   -4.4852   -6.8191   18.4985 C   0  0  0  0  0  0  0  0  0  0  0  0
   -4.6264   -5.7678   19.4080 C   0  0  0  0  0  0  0  0  0  0  0  0
   -4.2702   -5.8023   20.7944 C   0  0  0  0  0  0  0  0  0  0  0  0
   -3.5828   -6.8539   21.3814 C   0  0  0  0  0  0  0  0  0  0  0  0
   -3.2254   -6.9301   22.7494 N   0  0  0  0  0  0  0  0  0  0  0  0
   -2.3862   -5.9755   23.6616 C   0  0  0  0  0  0  0  0  0  0  0  0
   -2.8288   -4.2696   24.0925 C   0  0  0  0  0  0  0  0  0  0  0  0
   -2.9368   -3.6419   25.3253 C   0  0  0  0  0  0  0  0  0  0  0  0
   -3.1630   -2.3039   25.5349 C   0  0  0  0  0  0  0  0  0  0  0  0
   -3.0197   -2.2558   24.2310 N   0  0  0  0  0  0  0  0  0  0  0  0
   -3.5294   -3.2492   23.5269 N   0  0  0  0  0  0  0  0  0  0  0  0
   -3.4554   -7.9490   20.4901 C   0  0  0  0  0  0  0  0  0  0  0  0
   -3.8808   -7.9346   19.0815 C   0  0  0  0  0  0  0  0  0  0  0  0
   -8.6829   -6.2959   15.3813 H   0  0  0  0  0  0  0  0  0  0  0  0
   -8.5413   -8.0397   15.6507 H   0  0  0  0  0  0  0  0  0  0  0  0
   -7.8833   -6.9289   16.8304 H   0  0  0  0  0  0  0  0  0  0  0  0
   -6.4013   -6.1247   14.6944 H   0  0  0  0  0  0  0  0  0  0  0  0
   -6.7652   -7.7583   14.1639 H   0  0  0  0  0  0  0  0  0  0  0  0
   -3.1367   -5.7217   16.2093 H   0  0  0  0  0  0  0  0  0  0  0  0
   -4.5964   -5.4113   15.2961 H   0  0  0  0  0  0  0  0  0  0  0  0
   -4.3899   -4.5607   16.7938 H   0  0  0  0  0  0  0  0  0  0  0  0
   -4.9723   -4.8047   19.0640 H   0  0  0  0  0  0  0  0  0  0  0  0
   -4.5080   -4.8925   21.3292 H   0  0  0  0  0  0  0  0  0  0  0  0
   -4.0780   -7.1740   23.2545 H   0  0  0  0  0  0  0  0  0  0  0  0
   -2.1910   -6.5924   24.5546 H   0  0  0  0  0  0  0  0  0  0  0  0
   -1.3150   -5.9742   23.3768 H   0  0  0  0  0  0  0  0  0  0  0  0
   -2.5559   -4.4241   25.9355 H   0  0  0  0  0  0  0  0  0  0  0  0
   -2.9140   -1.6248   26.3359 H   0  0  0  0  0  0  0  0  0  0  0  0
   -2.3286   -1.6794   23.7759 H   0  0  0  0  0  0  0  0  0  0  0  0
   -2.9977   -8.8673   20.8591 H   0  0  0  0  0  0  0  0  0  0  0  0
   -3.7049   -8.8288   18.4868 H   0  0  0  0  0  0  0  0  0  0  0  0
  1  2  1  0
  2  3  1  0
  3  4  2  0
  3  5  2  0
  3  6  1  0
  6  7  1  0
  6  8  1  0
  8  9  2  0
  9 10  1  0
 10 11  2  0
 11 12  1  0
 12 13  1  0
 13 14  1  0
 14 15  1  0
 15 16  2  0
 16 17  1  0
 17 18  1  0
 11 19  1  0
 19 20  2  0
 20  8  1  0
 18 14  2  0
  1 21  1  0
  1 22  1  0
  1 23  1  0
  2 24  1  0
  2 25  1  0
  7 26  1  0
  7 27  1  0
  7 28  1  0
  9 29  1  0
 10 30  1  0
 12 31  1  0
 13 32  1  0
 13 33  1  0
 15 34  1  0
 16 35  1  0
 17 36  1  0
 19 37  1  0
 20 38  1  0
M  END
>  <Energy>  (301) 
146.42210955070175

>  <compound_id>  (301) 
19433

>  <target_id>  (301) 
1

>  <reference_id>  (301) 
13

>  <inspiration_ids>  (301) 
[13, 127]

>  <energy_score>  (301) 
101.3532531097377

>  <distance_score>  (301) 
9.417933037520106

>  <path>  (301) 
/opt/xchem-fragalysis-2/maxwin/BulkDock/SCRATCH/511020/C19433-P13/C19433-P13.minimised.mol

>  <scratch_subdir>  (301) 
/opt/xchem-fragalysis-2/maxwin/BulkDock/SCRATCH/511020/C19433-P13

>  <fragmenstein_runtime>  (301) 
180.07285261154175

>  <fragmenstein_outcome>  (301) 
too moved

>  <fragmenstein_mode>  (301) 
expansion

>  <fragmenstein_error>  (301) 


$$$$
C19433-P127
     RDKit          3D

 38 39  0  0  0  0  0  0  0  0999 V2000
   -5.3178   -6.3261   12.7682 C   0  0  0  0  0  0  0  0  0  0  0  0
   -5.5981   -5.9638   14.2100 C   0  0  0  0  0  0  0  0  0  0  0  0
   -4.6439   -7.0127   15.3285 S   0  0  0  0  0  0  0  0  0  0  0  0
   -3.2891   -6.5118   15.3285 O   0  0  0  0  0  0  0  0  0  0  0  0
   -4.9085   -8.3968   14.9775 O   0  0  0  0  0  0  0  0  0  0  0  0
   -5.3649   -6.7577   16.8842 N   0  0  0  0  0  0  0  0  0  0  0  0
   -6.7605   -7.2792   16.9582 C   0  0  0  0  0  0  0  0  0  0  0  0
   -4.5604   -7.0250   18.1103 C   0  0  0  0  0  0  0  0  0  0  0  0
   -4.8491   -6.3366   19.3069 C   0  0  0  0  0  0  0  0  0  0  0  0
   -4.1678   -6.5644   20.5444 C   0  0  0  0  0  0  0  0  0  0  0  0
   -3.1195   -7.4737   20.6305 C   0  0  0  0  0  0  0  0  0  0  0  0
   -2.3011   -7.6631   21.7407 N   0  0  0  0  0  0  0  0  0  0  0  0
   -2.0151   -6.7268   22.8496 C   0  0  0  0  0  0  0  0  0  0  0  0
   -0.5602   -6.3061   23.0081 C   0  0  0  0  0  0  0  0  0  0  0  0
    0.5112   -7.0307   23.5797 C   0  0  0  0  0  0  0  0  0  0  0  0
    1.6251   -6.2395   23.4102 C   0  0  0  0  0  0  0  0  0  0  0  0
    1.2020   -5.1370   22.7334 N   0  0  0  0  0  0  0  0  0  0  0  0
   -0.1186   -5.1303   22.5522 N   0  0  0  0  0  0  0  0  0  0  0  0
   -2.9151   -8.2509   19.4633 C   0  0  0  0  0  0  0  0  0  0  0  0
   -3.6204   -8.0436   18.2354 C   0  0  0  0  0  0  0  0  0  0  0  0
   -5.6677   -7.3374   12.5388 H   0  0  0  0  0  0  0  0  0  0  0  0
   -5.8261   -5.6312   12.1132 H   0  0  0  0  0  0  0  0  0  0  0  0
   -4.2463   -6.2892   12.5486 H   0  0  0  0  0  0  0  0  0  0  0  0
   -5.3109   -4.9317   14.4022 H   0  0  0  0  0  0  0  0  0  0  0  0
   -6.6566   -6.1032   14.4176 H   0  0  0  0  0  0  0  0  0  0  0  0
   -7.1843   -7.1248   17.9548 H   0  0  0  0  0  0  0  0  0  0  0  0
   -6.7818   -8.3569   16.7678 H   0  0  0  0  0  0  0  0  0  0  0  0
   -7.4218   -6.7734   16.2537 H   0  0  0  0  0  0  0  0  0  0  0  0
   -5.5830   -5.5432   19.3044 H   0  0  0  0  0  0  0  0  0  0  0  0
   -4.4495   -5.9544   21.3979 H   0  0  0  0  0  0  0  0  0  0  0  0
   -1.5221   -8.2917   21.5670 H   0  0  0  0  0  0  0  0  0  0  0  0
   -2.6688   -5.8514   22.8181 H   0  0  0  0  0  0  0  0  0  0  0  0
   -2.2855   -7.2607   23.7685 H   0  0  0  0  0  0  0  0  0  0  0  0
    0.4795   -8.0133   24.0308 H   0  0  0  0  0  0  0  0  0  0  0  0
    2.6657   -6.3821   23.6658 H   0  0  0  0  0  0  0  0  0  0  0  0
    1.7384   -4.3390   22.3999 H   0  0  0  0  0  0  0  0  0  0  0  0
   -2.1552   -9.0316   19.4696 H   0  0  0  0  0  0  0  0  0  0  0  0
   -3.3805   -8.6812   17.3878 H   0  0  0  0  0  0  0  0  0  0  0  0
  1  2  1  0
  2  3  1  0
  3  4  2  0
  3  5  2  0
  3  6  1  0
  6  7  1  0
  6  8  1  0
  8  9  2  0
  9 10  1  0
 10 11  2  0
 11 12  1  0
 12 13  1  0
 13 14  1  0
 14 15  1  0
 15 16  2  0
 16 17  1  0
 17 18  1  0
 11 19  1  0
 19 20  2  0
 20  8  1  0
 18 14  2  0
  1 21  1  0
  1 22  1  0
  1 23  1  0
  2 24  1  0
  2 25  1  0
  7 26  1  0
  7 27  1  0
  7 28  1  0
  9 29  1  0
 10 30  1  0
 12 31  1  0
 13 32  1  0
 13 33  1  0
 15 34  1  0
 16 35  1  0
 17 36  1  0
 19 37  1  0
 20 38  1  0
M  END
>  <Energy>  (302) 
14.838132107447864

>  <compound_id>  (302) 
19433

>  <target_id>  (302) 
1

>  <reference_id>  (302) 
127

>  <inspiration_ids>  (302) 
[13, 127]

>  <energy_score>  (302) 
-30.2307243335149

>  <distance_score>  (302) 
10.227042587356468

>  <path>  (302) 
/opt/xchem-fragalysis-2/maxwin/BulkDock/SCRATCH/511020/C19433-P127/C19433-P127.minimised.mol

>  <scratch_subdir>  (302) 
/opt/xchem-fragalysis-2/maxwin/BulkDock/SCRATCH/511020/C19433-P127

>  <fragmenstein_runtime>  (302) 
172.33131170272827

>  <fragmenstein_outcome>  (302) 
too moved

>  <fragmenstein_mode>  (302) 
expansion

>  <fragmenstein_error>  (302) 


$$$$
C19437-P13
     RDKit          3D

 37 39  0  0  0  0  0  0  0  0999 V2000
   -7.9601   -4.3877   13.8166 O   0  0  0  0  0  0  0  0  0  0  0  0
   -7.1256   -3.5108   14.0348 C   0  0  0  0  0  0  0  0  0  0  0  0
   -7.5166   -1.7658   13.9095 C   0  0  0  0  0  0  0  0  0  0  0  0
   -8.2449   -1.0782   12.4604 C   0  0  0  0  0  0  0  0  0  0  0  0
   -8.1413   -0.1988   11.0363 C   0  0  0  0  0  0  0  0  0  0  0  0
   -6.8965    0.0200   10.8356 C   0  0  0  0  0  0  0  0  0  0  0  0
   -6.1402   -0.2993   12.0336 C   0  0  0  0  0  0  0  0  0  0  0  0
   -6.3668   -1.0032   13.6221 C   0  0  0  0  0  0  0  0  0  0  0  0
   -5.8696   -2.1809   14.2482 C   0  0  0  0  0  0  0  0  0  0  0  0
   -5.7620   -1.3290   15.0510 O   0  0  0  0  0  0  0  0  0  0  0  0
   -5.7086   -3.5934   14.3551 N   0  0  0  0  0  0  0  0  0  0  0  0
   -4.8065   -4.0482   16.0820 C   0  0  0  0  0  0  0  0  0  0  0  0
   -4.7815   -4.5120   18.0277 C   0  0  0  0  0  0  0  0  0  0  0  0
   -4.8898   -4.2965   20.4226 S   0  0  0  0  0  0  0  0  0  0  0  0
   -6.2333   -4.2384   20.9520 O   0  0  0  0  0  0  0  0  0  0  0  0
   -4.0320   -5.3322   21.0279 O   0  0  0  0  0  0  0  0  0  0  0  0
   -3.8763   -3.1307   21.9745 N   0  0  0  0  0  0  0  0  0  0  0  0
   -2.9770   -2.9184   23.6072 C   0  0  0  0  0  0  0  0  0  0  0  0
   -3.1119   -1.8339   25.1485 C   0  0  0  0  0  0  0  0  0  0  0  0
   -2.5877   -0.4488   25.7519 C   0  0  0  0  0  0  0  0  0  0  0  0
   -2.3106   -0.5757   27.0884 C   0  0  0  0  0  0  0  0  0  0  0  0
   -2.7332   -1.8179   27.2924 N   0  0  0  0  0  0  0  0  0  0  0  0
   -3.4942   -2.3367   26.2993 N   0  0  0  0  0  0  0  0  0  0  0  0
   -9.3609   -1.2962   12.4283 H   0  0  0  0  0  0  0  0  0  0  0  0
   -8.9851   -0.0778   10.3620 H   0  0  0  0  0  0  0  0  0  0  0  0
   -6.5768    0.1493    9.8087 H   0  0  0  0  0  0  0  0  0  0  0  0
   -5.0975   -0.2999   11.6615 H   0  0  0  0  0  0  0  0  0  0  0  0
   -4.5642   -4.9724   15.6715 H   0  0  0  0  0  0  0  0  0  0  0  0
   -3.8214   -3.6840   16.1451 H   0  0  0  0  0  0  0  0  0  0  0  0
   -3.8944   -5.1120   17.9332 H   0  0  0  0  0  0  0  0  0  0  0  0
   -5.3797   -5.3891   17.7484 H   0  0  0  0  0  0  0  0  0  0  0  0
   -3.5272   -4.1047   22.0830 H   0  0  0  0  0  0  0  0  0  0  0  0
   -2.7687   -3.9311   23.9511 H   0  0  0  0  0  0  0  0  0  0  0  0
   -2.0574   -2.5452   23.1428 H   0  0  0  0  0  0  0  0  0  0  0  0
   -2.2781    0.4733   25.3022 H   0  0  0  0  0  0  0  0  0  0  0  0
   -1.8487    0.0608   27.8257 H   0  0  0  0  0  0  0  0  0  0  0  0
   -2.6528   -2.4037   28.1141 H   0  0  0  0  0  0  0  0  0  0  0  0
  1  2  2  0
  2  3  1  0
  3  4  2  0
  4  5  1  0
  5  6  2  0
  6  7  1  0
  7  8  2  0
  8  9  1  0
  9 10  2  0
  9 11  1  0
 11 12  1  0
 12 13  1  0
 13 14  1  0
 14 15  2  0
 14 16  2  0
 14 17  1  0
 17 18  1  0
 18 19  1  0
 19 20  1  0
 20 21  2  0
 21 22  1  0
 22 23  1  0
 11  2  1  0
 23 19  2  0
  8  3  1  0
  4 24  1  0
  5 25  1  0
  6 26  1  0
  7 27  1  0
 12 28  1  0
 12 29  1  0
 13 30  1  0
 13 31  1  0
 17 32  1  0
 18 33  1  0
 18 34  1  0
 20 35  1  0
 21 36  1  0
 22 37  1  0
M  END
>  <Energy>  (303) 
1005.520366642742

>  <compound_id>  (303) 
19437

>  <target_id>  (303) 
1

>  <reference_id>  (303) 
13

>  <inspiration_ids>  (303) 
[13, 127]

>  <energy_score>  (303) 
1054.090639544183

>  <distance_score>  (303) 
7.875090417743893

>  <path>  (303) 
/opt/xchem-fragalysis-2/maxwin/BulkDock/SCRATCH/511020/C19437-P13/C19437-P13.minimised.mol

>  <scratch_subdir>  (303) 
/opt/xchem-fragalysis-2/maxwin/BulkDock/SCRATCH/511020/C19437-P13

>  <fragmenstein_runtime>  (303) 
23.203073740005493

>  <fragmenstein_outcome>  (303) 
too moved

>  <fragmenstein_mode>  (303) 
expansion

>  <fragmenstein_error>  (303) 


$$$$
C19437-P127
     RDKit          3D

 37 39  0  0  0  0  0  0  0  0999 V2000
   -5.2418   -1.1146   15.5150 O   0  0  0  0  0  0  0  0  0  0  0  0
   -4.4282   -0.0173   16.6061 C   0  0  0  0  0  0  0  0  0  0  0  0
   -5.6060   -0.2692   15.0276 C   0  0  0  0  0  0  0  0  0  0  0  0
   -6.1547   -0.9897   13.9542 C   0  0  0  0  0  0  0  0  0  0  0  0
   -6.2750   -0.3733   12.7066 C   0  0  0  0  0  0  0  0  0  0  0  0
   -6.7313    0.7638   12.7876 C   0  0  0  0  0  0  0  0  0  0  0  0
   -6.4045    1.3832   13.9345 C   0  0  0  0  0  0  0  0  0  0  0  0
   -5.2205    0.8723   15.1502 C   0  0  0  0  0  0  0  0  0  0  0  0
   -5.1302    1.1161   17.2736 C   0  0  0  0  0  0  0  0  0  0  0  0
   -5.2708    2.1748   17.9086 O   0  0  0  0  0  0  0  0  0  0  0  0
   -4.9236   -0.2848   18.4365 N   0  0  0  0  0  0  0  0  0  0  0  0
   -4.2108   -0.7084   20.5034 C   0  0  0  0  0  0  0  0  0  0  0  0
   -3.3559   -1.9161   22.0846 C   0  0  0  0  0  0  0  0  0  0  0  0
   -3.1934   -2.5268   24.3267 S   0  0  0  0  0  0  0  0  0  0  0  0
   -2.8183   -1.3830   25.1426 O   0  0  0  0  0  0  0  0  0  0  0  0
   -2.8146   -3.9188   24.1608 O   0  0  0  0  0  0  0  0  0  0  0  0
   -3.7164   -2.5415   25.9397 N   0  0  0  0  0  0  0  0  0  0  0  0
   -2.6613   -1.9458   27.2720 C   0  0  0  0  0  0  0  0  0  0  0  0
   -2.1203   -0.5260   27.4468 C   0  0  0  0  0  0  0  0  0  0  0  0
   -2.5299    0.7259   26.9112 C   0  0  0  0  0  0  0  0  0  0  0  0
   -1.6809    1.6644   27.4400 C   0  0  0  0  0  0  0  0  0  0  0  0
   -0.8322    0.9755   28.2437 N   0  0  0  0  0  0  0  0  0  0  0  0
   -1.0974   -0.3364   28.3136 N   0  0  0  0  0  0  0  0  0  0  0  0
   -6.3048   -2.0513   14.2463 H   0  0  0  0  0  0  0  0  0  0  0  0
   -6.4045   -0.6828   11.7051 H   0  0  0  0  0  0  0  0  0  0  0  0
   -7.1966    0.8066   11.8183 H   0  0  0  0  0  0  0  0  0  0  0  0
   -6.5987    2.4365   13.9452 H   0  0  0  0  0  0  0  0  0  0  0  0
   -4.4409    0.3716   20.8041 H   0  0  0  0  0  0  0  0  0  0  0  0
   -3.9922   -0.2188   21.4778 H   0  0  0  0  0  0  0  0  0  0  0  0
   -2.2762   -1.8082   22.1909 H   0  0  0  0  0  0  0  0  0  0  0  0
   -3.6326   -2.9629   21.9159 H   0  0  0  0  0  0  0  0  0  0  0  0
   -3.5584   -3.4824   26.2842 H   0  0  0  0  0  0  0  0  0  0  0  0
   -3.2979   -2.1529   28.1088 H   0  0  0  0  0  0  0  0  0  0  0  0
   -1.8483   -2.6511   27.4464 H   0  0  0  0  0  0  0  0  0  0  0  0
   -3.3484    0.9168   26.2348 H   0  0  0  0  0  0  0  0  0  0  0  0
   -1.6235    2.7374   27.3266 H   0  0  0  0  0  0  0  0  0  0  0  0
   -0.0648    1.3397   28.7968 H   0  0  0  0  0  0  0  0  0  0  0  0
  1  2  2  0
  2  3  1  0
  3  4  2  0
  4  5  1  0
  5  6  2  0
  6  7  1  0
  7  8  2  0
  8  9  1  0
  9 10  2  0
  9 11  1  0
 11 12  1  0
 12 13  1  0
 13 14  1  0
 14 15  2  0
 14 16  2  0
 14 17  1  0
 17 18  1  0
 18 19  1  0
 19 20  1  0
 20 21  2  0
 21 22  1  0
 22 23  1  0
 11  2  1  0
 23 19  2  0
  8  3  1  0
  4 24  1  0
  5 25  1  0
  6 26  1  0
  7 27  1  0
 12 28  1  0
 12 29  1  0
 13 30  1  0
 13 31  1  0
 17 32  1  0
 18 33  1  0
 18 34  1  0
 20 35  1  0
 21 36  1  0
 22 37  1  0
M  END
>  <Energy>  (304) 
1860.0610900742884

>  <compound_id>  (304) 
19437

>  <target_id>  (304) 
1

>  <reference_id>  (304) 
127

>  <inspiration_ids>  (304) 
[13, 127]

>  <energy_score>  (304) 
1908.6313629757594

>  <distance_score>  (304) 
6.2699756791167705

>  <path>  (304) 
/opt/xchem-fragalysis-2/maxwin/BulkDock/SCRATCH/511020/C19437-P127/C19437-P127.minimised.mol

>  <scratch_subdir>  (304) 
/opt/xchem-fragalysis-2/maxwin/BulkDock/SCRATCH/511020/C19437-P127

>  <fragmenstein_runtime>  (304) 
21.801852464675903

>  <fragmenstein_outcome>  (304) 
too moved

>  <fragmenstein_mode>  (304) 
expansion

>  <fragmenstein_error>  (304) 


$$$$
C19433-P13
     RDKit          3D

 38 39  0  0  0  0  0  0  0  0999 V2000
   -8.0254   -7.0801   15.7646 C   0  0  0  0  0  0  0  0  0  0  0  0
   -6.6969   -7.1122   15.0458 C   0  0  0  0  0  0  0  0  0  0  0  0
   -5.3597   -7.8452   16.0094 S   0  0  0  0  0  0  0  0  0  0  0  0
   -4.2869   -8.0586   15.0546 O   0  0  0  0  0  0  0  0  0  0  0  0
   -5.9044   -8.9460   16.7765 O   0  0  0  0  0  0  0  0  0  0  0  0
   -4.8753   -6.5982   17.0621 N   0  0  0  0  0  0  0  0  0  0  0  0
   -4.2018   -5.5101   16.3074 C   0  0  0  0  0  0  0  0  0  0  0  0
   -4.4852   -6.8191   18.4985 C   0  0  0  0  0  0  0  0  0  0  0  0
   -4.6264   -5.7678   19.4080 C   0  0  0  0  0  0  0  0  0  0  0  0
   -4.2702   -5.8023   20.7944 C   0  0  0  0  0  0  0  0  0  0  0  0
   -3.5828   -6.8539   21.3814 C   0  0  0  0  0  0  0  0  0  0  0  0
   -3.2254   -6.9301   22.7494 N   0  0  0  0  0  0  0  0  0  0  0  0
   -2.3862   -5.9755   23.6616 C   0  0  0  0  0  0  0  0  0  0  0  0
   -2.8288   -4.2696   24.0925 C   0  0  0  0  0  0  0  0  0  0  0  0
   -2.9368   -3.6419   25.3253 C   0  0  0  0  0  0  0  0  0  0  0  0
   -3.1630   -2.3039   25.5349 C   0  0  0  0  0  0  0  0  0  0  0  0
   -3.0197   -2.2558   24.2310 N   0  0  0  0  0  0  0  0  0  0  0  0
   -3.5294   -3.2492   23.5269 N   0  0  0  0  0  0  0  0  0  0  0  0
   -3.4554   -7.9490   20.4901 C   0  0  0  0  0  0  0  0  0  0  0  0
   -3.8808   -7.9346   19.0815 C   0  0  0  0  0  0  0  0  0  0  0  0
   -8.6829   -6.2959   15.3813 H   0  0  0  0  0  0  0  0  0  0  0  0
   -8.5413   -8.0397   15.6507 H   0  0  0  0  0  0  0  0  0  0  0  0
   -7.8833   -6.9289   16.8304 H   0  0  0  0  0  0  0  0  0  0  0  0
   -6.4013   -6.1247   14.6944 H   0  0  0  0  0  0  0  0  0  0  0  0
   -6.7652   -7.7583   14.1639 H   0  0  0  0  0  0  0  0  0  0  0  0
   -3.1367   -5.7217   16.2093 H   0  0  0  0  0  0  0  0  0  0  0  0
   -4.5964   -5.4113   15.2961 H   0  0  0  0  0  0  0  0  0  0  0  0
   -4.3899   -4.5607   16.7938 H   0  0  0  0  0  0  0  0  0  0  0  0
   -4.9723   -4.8047   19.0640 H   0  0  0  0  0  0  0  0  0  0  0  0
   -4.5080   -4.8925   21.3292 H   0  0  0  0  0  0  0  0  0  0  0  0
   -4.0780   -7.1740   23.2545 H   0  0  0  0  0  0  0  0  0  0  0  0
   -2.1910   -6.5924   24.5546 H   0  0  0  0  0  0  0  0  0  0  0  0
   -1.3150   -5.9742   23.3768 H   0  0  0  0  0  0  0  0  0  0  0  0
   -2.5559   -4.4241   25.9355 H   0  0  0  0  0  0  0  0  0  0  0  0
   -2.9140   -1.6248   26.3359 H   0  0  0  0  0  0  0  0  0  0  0  0
   -2.3286   -1.6794   23.7759 H   0  0  0  0  0  0  0  0  0  0  0  0
   -2.9977   -8.8673   20.8591 H   0  0  0  0  0  0  0  0  0  0  0  0
   -3.7049   -8.8288   18.4868 H   0  0  0  0  0  0  0  0  0  0  0  0
  1  2  1  0
  2  3  1  0
  3  4  2  0
  3  5  2  0
  3  6  1  0
  6  7  1  0
  6  8  1  0
  8  9  2  0
  9 10  1  0
 10 11  2  0
 11 12  1  0
 12 13  1  0
 13 14  1  0
 14 15  1  0
 15 16  2  0
 16 17  1  0
 17 18  1  0
 11 19  1  0
 19 20  2  0
 20  8  1  0
 18 14  2  0
  1 21  1  0
  1 22  1  0
  1 23  1  0
  2 24  1  0
  2 25  1  0
  7 26  1  0
  7 27  1  0
  7 28  1  0
  9 29  1  0
 10 30  1  0
 12 31  1  0
 13 32  1  0
 13 33  1  0
 15 34  1  0
 16 35  1  0
 17 36  1  0
 19 37  1  0
 20 38  1  0
M  END
>  <Energy>  (305) 
146.42210955070175

>  <compound_id>  (305) 
19433

>  <target_id>  (305) 
1

>  <reference_id>  (305) 
13

>  <inspiration_ids>  (305) 
[13, 127]

>  <energy_score>  (305) 
101.3532531097377

>  <distance_score>  (305) 
9.417933037520106

>  <path>  (305) 
/opt/xchem-fragalysis-2/maxwin/BulkDock/SCRATCH/511020/C19433-P13/C19433-P13.minimised.mol

>  <scratch_subdir>  (305) 
/opt/xchem-fragalysis-2/maxwin/BulkDock/SCRATCH/511020/C19433-P13

>  <fragmenstein_runtime>  (305) 
200.98252654075623

>  <fragmenstein_outcome>  (305) 
too moved

>  <fragmenstein_mode>  (305) 
expansion

>  <fragmenstein_error>  (305) 


$$$$
C19433-P127
     RDKit          3D

 38 39  0  0  0  0  0  0  0  0999 V2000
   -5.3178   -6.3261   12.7682 C   0  0  0  0  0  0  0  0  0  0  0  0
   -5.5981   -5.9638   14.2100 C   0  0  0  0  0  0  0  0  0  0  0  0
   -4.6439   -7.0127   15.3285 S   0  0  0  0  0  0  0  0  0  0  0  0
   -3.2891   -6.5118   15.3285 O   0  0  0  0  0  0  0  0  0  0  0  0
   -4.9085   -8.3968   14.9775 O   0  0  0  0  0  0  0  0  0  0  0  0
   -5.3649   -6.7577   16.8842 N   0  0  0  0  0  0  0  0  0  0  0  0
   -6.7605   -7.2792   16.9582 C   0  0  0  0  0  0  0  0  0  0  0  0
   -4.5604   -7.0250   18.1103 C   0  0  0  0  0  0  0  0  0  0  0  0
   -4.8491   -6.3366   19.3069 C   0  0  0  0  0  0  0  0  0  0  0  0
   -4.1678   -6.5644   20.5444 C   0  0  0  0  0  0  0  0  0  0  0  0
   -3.1195   -7.4737   20.6305 C   0  0  0  0  0  0  0  0  0  0  0  0
   -2.3011   -7.6631   21.7407 N   0  0  0  0  0  0  0  0  0  0  0  0
   -2.0151   -6.7268   22.8496 C   0  0  0  0  0  0  0  0  0  0  0  0
   -0.5602   -6.3061   23.0081 C   0  0  0  0  0  0  0  0  0  0  0  0
    0.5112   -7.0307   23.5797 C   0  0  0  0  0  0  0  0  0  0  0  0
    1.6251   -6.2395   23.4102 C   0  0  0  0  0  0  0  0  0  0  0  0
    1.2020   -5.1370   22.7334 N   0  0  0  0  0  0  0  0  0  0  0  0
   -0.1186   -5.1303   22.5522 N   0  0  0  0  0  0  0  0  0  0  0  0
   -2.9151   -8.2509   19.4633 C   0  0  0  0  0  0  0  0  0  0  0  0
   -3.6204   -8.0436   18.2354 C   0  0  0  0  0  0  0  0  0  0  0  0
   -5.6677   -7.3374   12.5388 H   0  0  0  0  0  0  0  0  0  0  0  0
   -5.8261   -5.6312   12.1132 H   0  0  0  0  0  0  0  0  0  0  0  0
   -4.2463   -6.2892   12.5486 H   0  0  0  0  0  0  0  0  0  0  0  0
   -5.3109   -4.9317   14.4022 H   0  0  0  0  0  0  0  0  0  0  0  0
   -6.6566   -6.1032   14.4176 H   0  0  0  0  0  0  0  0  0  0  0  0
   -7.1843   -7.1248   17.9548 H   0  0  0  0  0  0  0  0  0  0  0  0
   -6.7818   -8.3569   16.7678 H   0  0  0  0  0  0  0  0  0  0  0  0
   -7.4218   -6.7734   16.2537 H   0  0  0  0  0  0  0  0  0  0  0  0
   -5.5830   -5.5432   19.3044 H   0  0  0  0  0  0  0  0  0  0  0  0
   -4.4495   -5.9544   21.3979 H   0  0  0  0  0  0  0  0  0  0  0  0
   -1.5221   -8.2917   21.5670 H   0  0  0  0  0  0  0  0  0  0  0  0
   -2.6688   -5.8514   22.8181 H   0  0  0  0  0  0  0  0  0  0  0  0
   -2.2855   -7.2607   23.7685 H   0  0  0  0  0  0  0  0  0  0  0  0
    0.4795   -8.0133   24.0308 H   0  0  0  0  0  0  0  0  0  0  0  0
    2.6657   -6.3821   23.6658 H   0  0  0  0  0  0  0  0  0  0  0  0
    1.7384   -4.3390   22.3999 H   0  0  0  0  0  0  0  0  0  0  0  0
   -2.1552   -9.0316   19.4696 H   0  0  0  0  0  0  0  0  0  0  0  0
   -3.3805   -8.6812   17.3878 H   0  0  0  0  0  0  0  0  0  0  0  0
  1  2  1  0
  2  3  1  0
  3  4  2  0
  3  5  2  0
  3  6  1  0
  6  7  1  0
  6  8  1  0
  8  9  2  0
  9 10  1  0
 10 11  2  0
 11 12  1  0
 12 13  1  0
 13 14  1  0
 14 15  1  0
 15 16  2  0
 16 17  1  0
 17 18  1  0
 11 19  1  0
 19 20  2  0
 20  8  1  0
 18 14  2  0
  1 21  1  0
  1 22  1  0
  1 23  1  0
  2 24  1  0
  2 25  1  0
  7 26  1  0
  7 27  1  0
  7 28  1  0
  9 29  1  0
 10 30  1  0
 12 31  1  0
 13 32  1  0
 13 33  1  0
 15 34  1  0
 16 35  1  0
 17 36  1  0
 19 37  1  0
 20 38  1  0
M  END
>  <Energy>  (306) 
14.838132107447864

>  <compound_id>  (306) 
19433

>  <target_id>  (306) 
1

>  <reference_id>  (306) 
127

>  <inspiration_ids>  (306) 
[13, 127]

>  <energy_score>  (306) 
-30.2307243335149

>  <distance_score>  (306) 
10.227042587356468

>  <path>  (306) 
/opt/xchem-fragalysis-2/maxwin/BulkDock/SCRATCH/511020/C19433-P127/C19433-P127.minimised.mol

>  <scratch_subdir>  (306) 
/opt/xchem-fragalysis-2/maxwin/BulkDock/SCRATCH/511020/C19433-P127

>  <fragmenstein_runtime>  (306) 
173.00005435943604

>  <fragmenstein_outcome>  (306) 
too moved

>  <fragmenstein_mode>  (306) 
expansion

>  <fragmenstein_error>  (306) 


$$$$
C19429-P13
     RDKit          3D

 37 38  0  0  0  0  0  0  0  0999 V2000
   -6.5384   -0.2004    9.5625 C   0  0  0  0  0  0  0  0  0  0  0  0
   -7.0214    0.2816   11.0525 C   0  0  0  0  0  0  0  0  0  0  0  0
   -6.3011   -0.4609   12.9521 S   0  0  0  0  0  0  0  0  0  0  0  0
   -5.1886   -0.5954   12.0052 O   0  0  0  0  0  0  0  0  0  0  0  0
   -7.6702   -0.9559   12.8060 O   0  0  0  0  0  0  0  0  0  0  0  0
   -5.5144    0.3609   15.0703 N   0  0  0  0  0  0  0  0  0  0  0  0
   -6.5164    1.4618   13.7986 C   0  0  0  0  0  0  0  0  0  0  0  0
   -4.4685    0.1901   17.0257 C   0  0  0  0  0  0  0  0  0  0  0  0
   -4.5728   -0.9058   18.6445 C   0  0  0  0  0  0  0  0  0  0  0  0
   -4.2458   -0.5377   20.6190 C   0  0  0  0  0  0  0  0  0  0  0  0
   -3.9028    0.1967   21.5999 C   0  0  0  0  0  0  0  0  0  0  0  0
   -3.9599    2.0569   21.7961 N   0  0  0  0  0  0  0  0  0  0  0  0
   -3.0560    2.9755   22.5235 C   0  0  0  0  0  0  0  0  0  0  0  0
   -2.0226    2.7613   23.0969 O   0  0  0  0  0  0  0  0  0  0  0  0
   -3.5200    4.3744   22.5875 C   0  0  0  0  0  0  0  0  0  0  0  0
   -4.2065    5.1661   21.6403 C   0  0  0  0  0  0  0  0  0  0  0  0
   -4.2714    6.4221   22.1968 C   0  0  0  0  0  0  0  0  0  0  0  0
   -3.6200    6.3389   23.3886 N   0  0  0  0  0  0  0  0  0  0  0  0
   -3.1899    5.1127   23.6642 N   0  0  0  0  0  0  0  0  0  0  0  0
   -3.9391   -0.1798   20.3687 C   0  0  0  0  0  0  0  0  0  0  0  0
   -3.6385   -0.8134   18.3971 C   0  0  0  0  0  0  0  0  0  0  0  0
   -5.4587   -0.3142    9.4000 H   0  0  0  0  0  0  0  0  0  0  0  0
   -6.8692    0.5834    8.8646 H   0  0  0  0  0  0  0  0  0  0  0  0
   -7.0035   -1.0976    9.1542 H   0  0  0  0  0  0  0  0  0  0  0  0
   -8.0344   -0.1217   10.9471 H   0  0  0  0  0  0  0  0  0  0  0  0
   -7.3628    1.2741   10.9879 H   0  0  0  0  0  0  0  0  0  0  0  0
   -6.4912    1.4541   12.7246 H   0  0  0  0  0  0  0  0  0  0  0  0
   -7.5441    1.4768   13.8516 H   0  0  0  0  0  0  0  0  0  0  0  0
   -6.2071    2.4483   13.6443 H   0  0  0  0  0  0  0  0  0  0  0  0
   -4.3087   -2.2623   18.8315 H   0  0  0  0  0  0  0  0  0  0  0  0
   -3.8539   -1.5187   21.6278 H   0  0  0  0  0  0  0  0  0  0  0  0
   -4.7964    2.5707   21.5025 H   0  0  0  0  0  0  0  0  0  0  0  0
   -4.5792    4.8725   20.6686 H   0  0  0  0  0  0  0  0  0  0  0  0
   -4.6881    7.3531   21.8418 H   0  0  0  0  0  0  0  0  0  0  0  0
   -3.4496    7.0647   24.0789 H   0  0  0  0  0  0  0  0  0  0  0  0
   -4.7217    1.1774   20.3015 H   0  0  0  0  0  0  0  0  0  0  0  0
   -2.6754   -1.3916   18.1466 H   0  0  0  0  0  0  0  0  0  0  0  0
  1  2  1  0
  2  3  1  0
  3  4  2  0
  3  5  2  0
  3  6  1  0
  6  7  1  0
  6  8  1  0
  8  9  2  0
  9 10  1  0
 10 11  2  0
 11 12  1  0
 12 13  1  0
 13 14  2  0
 13 15  1  0
 15 16  1  0
 16 17  2  0
 17 18  1  0
 18 19  1  0
 11 20  1  0
 20 21  2  0
 21  8  1  0
 19 15  2  0
  1 22  1  0
  1 23  1  0
  1 24  1  0
  2 25  1  0
  2 26  1  0
  7 27  1  0
  7 28  1  0
  7 29  1  0
  9 30  1  0
 10 31  1  0
 12 32  1  0
 16 33  1  0
 17 34  1  0
 18 35  1  0
 20 36  1  0
 21 37  1  0
M  END
>  <Energy>  (307) 
2304.693570799448

>  <compound_id>  (307) 
19429

>  <target_id>  (307) 
1

>  <reference_id>  (307) 
13

>  <inspiration_ids>  (307) 
[13, 127]

>  <energy_score>  (307) 
2235.919507542325

>  <distance_score>  (307) 
6.119487766088683

>  <path>  (307) 
/opt/xchem-fragalysis-2/maxwin/BulkDock/SCRATCH/511020/C19429-P13/C19429-P13.minimised.mol

>  <scratch_subdir>  (307) 
/opt/xchem-fragalysis-2/maxwin/BulkDock/SCRATCH/511020/C19429-P13

>  <fragmenstein_runtime>  (307) 
212.86978816986084

>  <fragmenstein_outcome>  (307) 
too moved

>  <fragmenstein_mode>  (307) 
expansion

>  <fragmenstein_error>  (307) 


$$$$
C19429-P127
     RDKit          3D

 37 38  0  0  0  0  0  0  0  0999 V2000
   -6.7499   -1.2204    8.8012 C   0  0  0  0  0  0  0  0  0  0  0  0
   -6.3287   -0.3876   10.0875 C   0  0  0  0  0  0  0  0  0  0  0  0
   -6.3209   -0.4283   12.4605 S   0  0  0  0  0  0  0  0  0  0  0  0
   -6.5690    0.8375   13.1587 O   0  0  0  0  0  0  0  0  0  0  0  0
   -7.7298   -0.6639   12.3124 O   0  0  0  0  0  0  0  0  0  0  0  0
   -5.8840   -2.2804   14.0726 N   0  0  0  0  0  0  0  0  0  0  0  0
   -6.5045   -1.5239   15.0215 C   0  0  0  0  0  0  0  0  0  0  0  0
   -5.2103   -4.1602   14.6321 C   0  0  0  0  0  0  0  0  0  0  0  0
   -4.5112   -4.0918   16.2126 C   0  0  0  0  0  0  0  0  0  0  0  0
   -4.4882   -4.4111   18.0269 C   0  0  0  0  0  0  0  0  0  0  0  0
   -4.8221   -5.2258   19.0209 C   0  0  0  0  0  0  0  0  0  0  0  0
   -4.7450   -5.0132   20.9206 N   0  0  0  0  0  0  0  0  0  0  0  0
   -4.0051   -3.6153   22.0240 C   0  0  0  0  0  0  0  0  0  0  0  0
   -3.5052   -2.6061   21.5460 O   0  0  0  0  0  0  0  0  0  0  0  0
   -3.7871   -3.5701   23.6142 C   0  0  0  0  0  0  0  0  0  0  0  0
   -3.0126   -2.4486   23.9774 C   0  0  0  0  0  0  0  0  0  0  0  0
   -3.2851   -1.8967   25.2276 C   0  0  0  0  0  0  0  0  0  0  0  0
   -3.2878   -3.0743   25.7235 N   0  0  0  0  0  0  0  0  0  0  0  0
   -3.1031   -4.1713   24.6006 N   0  0  0  0  0  0  0  0  0  0  0  0
   -5.1306   -6.0424   17.5539 C   0  0  0  0  0  0  0  0  0  0  0  0
   -5.1925   -5.6006   15.6885 C   0  0  0  0  0  0  0  0  0  0  0  0
   -5.8895   -1.7483    8.3796 H   0  0  0  0  0  0  0  0  0  0  0  0
   -6.9565   -0.4696    8.0215 H   0  0  0  0  0  0  0  0  0  0  0  0
   -7.6370   -1.8575    8.7697 H   0  0  0  0  0  0  0  0  0  0  0  0
   -7.0757    0.4219    9.9703 H   0  0  0  0  0  0  0  0  0  0  0  0
   -5.2921   -0.1741    9.7084 H   0  0  0  0  0  0  0  0  0  0  0  0
   -7.2980   -1.8876   14.4646 H   0  0  0  0  0  0  0  0  0  0  0  0
   -7.1780   -1.6216   15.8496 H   0  0  0  0  0  0  0  0  0  0  0  0
   -6.0800   -0.5433   14.8797 H   0  0  0  0  0  0  0  0  0  0  0  0
   -3.4719   -4.6200   16.1178 H   0  0  0  0  0  0  0  0  0  0  0  0
   -4.0139   -3.5929   18.6512 H   0  0  0  0  0  0  0  0  0  0  0  0
   -5.0272   -5.7853   21.5065 H   0  0  0  0  0  0  0  0  0  0  0  0
   -2.2834   -2.0829   23.2687 H   0  0  0  0  0  0  0  0  0  0  0  0
   -2.9541   -1.0260   25.7853 H   0  0  0  0  0  0  0  0  0  0  0  0
   -3.1547   -3.2774   26.7019 H   0  0  0  0  0  0  0  0  0  0  0  0
   -5.3793   -7.1090   17.6849 H   0  0  0  0  0  0  0  0  0  0  0  0
   -5.3477   -6.5254   15.1003 H   0  0  0  0  0  0  0  0  0  0  0  0
  1  2  1  0
  2  3  1  0
  3  4  2  0
  3  5  2  0
  3  6  1  0
  6  7  1  0
  6  8  1  0
  8  9  2  0
  9 10  1  0
 10 11  2  0
 11 12  1  0
 12 13  1  0
 13 14  2  0
 13 15  1  0
 15 16  1  0
 16 17  2  0
 17 18  1  0
 18 19  1  0
 11 20  1  0
 20 21  2  0
 21  8  1  0
 19 15  2  0
  1 22  1  0
  1 23  1  0
  1 24  1  0
  2 25  1  0
  2 26  1  0
  7 27  1  0
  7 28  1  0
  7 29  1  0
  9 30  1  0
 10 31  1  0
 12 32  1  0
 16 33  1  0
 17 34  1  0
 18 35  1  0
 20 36  1  0
 21 37  1  0
M  END
>  <Energy>  (308) 
1440.2761984145232

>  <compound_id>  (308) 
19429

>  <target_id>  (308) 
1

>  <reference_id>  (308) 
127

>  <inspiration_ids>  (308) 
[13, 127]

>  <energy_score>  (308) 
1371.5021351573855

>  <distance_score>  (308) 
6.689411510185201

>  <path>  (308) 
/opt/xchem-fragalysis-2/maxwin/BulkDock/SCRATCH/511020/C19429-P127/C19429-P127.minimised.mol

>  <scratch_subdir>  (308) 
/opt/xchem-fragalysis-2/maxwin/BulkDock/SCRATCH/511020/C19429-P127

>  <fragmenstein_runtime>  (308) 
208.759605884552

>  <fragmenstein_outcome>  (308) 
too moved

>  <fragmenstein_mode>  (308) 
expansion

>  <fragmenstein_error>  (308) 


$$$$
C51669-P59
     RDKit          3D

 51 54  0  0  0  0  0  0  0  0999 V2000
    0.2406   -7.7574   30.1826 C   0  0  0  0  0  0  0  0  0  0  0  0
   -0.7760   -8.7748   30.6968 C   0  0  0  0  0  0  0  0  0  0  0  0
   -1.8184   -7.9633   31.4635 C   0  0  0  0  0  0  0  0  0  0  0  0
   -1.2618   -9.9951   29.7633 C   0  0  0  0  0  0  0  0  0  0  0  0
   -1.7527  -11.2029   30.1327 C   0  0  0  0  0  0  0  0  0  0  0  0
   -2.8703  -12.1964   29.4222 C   0  0  0  0  0  0  0  0  0  0  0  0
   -3.4516  -13.8397   30.0029 N   0  0  0  0  0  0  0  0  0  0  0  0
   -5.2358  -14.4560   30.5047 C   0  0  0  0  0  0  0  0  0  0  0  0
   -6.2138  -13.7544   30.3611 O   0  0  0  0  0  0  0  0  0  0  0  0
   -5.7417  -16.0881   31.4427 C   0  0  0  0  0  0  0  0  0  0  0  0
   -6.8141  -17.6166   32.2039 O   0  0  0  0  0  0  0  0  0  0  0  0
   -8.0656  -18.4254   33.3012 C   0  0  0  0  0  0  0  0  0  0  0  0
   -8.7454  -17.5172   33.8945 O   0  0  0  0  0  0  0  0  0  0  0  0
   -8.8408  -20.2735   33.7867 C   0  0  0  0  0  0  0  0  0  0  0  0
   -9.8661  -19.4282   33.8791 C   0  0  0  0  0  0  0  0  0  0  0  0
  -10.7682  -19.4401   32.5247 C   0  0  0  0  0  0  0  0  0  0  0  0
  -11.2790  -20.4373   31.0333 C   0  0  0  0  0  0  0  0  0  0  0  0
  -12.2856  -20.6829   29.8540 N   0  0  0  0  0  0  0  0  0  0  0  0
  -11.8810  -21.5781   28.8769 C   0  0  0  0  0  0  0  0  0  0  0  0
  -10.9313  -22.2793   29.4666 C   0  0  0  0  0  0  0  0  0  0  0  0
  -10.8849  -21.6383   31.1235 C   0  0  0  0  0  0  0  0  0  0  0  0
   -9.6733  -21.4826   32.4599 C   0  0  0  0  0  0  0  0  0  0  0  0
  -10.1757  -23.3389   28.3874 C   0  0  0  0  0  0  0  0  0  0  0  0
  -10.8199  -23.7997   27.0740 C   0  0  0  0  0  0  0  0  0  0  0  0
  -12.1284  -23.1550   26.7967 C   0  0  0  0  0  0  0  0  0  0  0  0
  -12.2292  -21.7827   27.4451 C   0  0  0  0  0  0  0  0  0  0  0  0
   -2.5755  -11.4942   28.2080 O   0  0  0  0  0  0  0  0  0  0  0  0
   -1.2249  -10.2957   28.4677 N   0  0  0  0  0  0  0  0  0  0  0  0
   -0.1735   -6.7476   30.1425 H   0  0  0  0  0  0  0  0  0  0  0  0
    1.0693   -7.6596   30.8977 H   0  0  0  0  0  0  0  0  0  0  0  0
    0.6784   -8.0582   29.2286 H   0  0  0  0  0  0  0  0  0  0  0  0
   -0.3357   -9.2536   31.5680 H   0  0  0  0  0  0  0  0  0  0  0  0
   -1.3507   -7.3787   32.2656 H   0  0  0  0  0  0  0  0  0  0  0  0
   -2.2743   -7.2582   30.7793 H   0  0  0  0  0  0  0  0  0  0  0  0
   -2.5838   -8.5825   31.9263 H   0  0  0  0  0  0  0  0  0  0  0  0
   -1.3269  -11.4138   31.0715 H   0  0  0  0  0  0  0  0  0  0  0  0
   -2.7636  -14.5393   30.2798 H   0  0  0  0  0  0  0  0  0  0  0  0
   -6.2617  -15.4316   32.0816 H   0  0  0  0  0  0  0  0  0  0  0  0
   -4.7361  -16.1127   31.9015 H   0  0  0  0  0  0  0  0  0  0  0  0
  -10.1105  -18.7660   34.7072 H   0  0  0  0  0  0  0  0  0  0  0  0
  -11.6737  -18.9059   32.9483 H   0  0  0  0  0  0  0  0  0  0  0  0
  -12.9839  -20.0077   29.6084 H   0  0  0  0  0  0  0  0  0  0  0  0
   -9.5113  -22.6158   32.5963 H   0  0  0  0  0  0  0  0  0  0  0  0
   -9.2340  -22.8768   28.0890 H   0  0  0  0  0  0  0  0  0  0  0  0
   -9.9033  -24.2730   28.8629 H   0  0  0  0  0  0  0  0  0  0  0  0
  -10.1409  -23.7311   26.2472 H   0  0  0  0  0  0  0  0  0  0  0  0
  -10.8607  -24.8832   26.9377 H   0  0  0  0  0  0  0  0  0  0  0  0
  -12.2822  -23.0373   25.7183 H   0  0  0  0  0  0  0  0  0  0  0  0
  -12.9161  -23.8482   27.0853 H   0  0  0  0  0  0  0  0  0  0  0  0
  -13.2274  -21.5263   27.3150 H   0  0  0  0  0  0  0  0  0  0  0  0
  -11.6586  -21.1384   26.8100 H   0  0  0  0  0  0  0  0  0  0  0  0
  1  2  1  0
  2  3  1  0
  2  4  1  0
  4  5  1  0
  5  6  2  0
  6  7  1  0
  7  8  1  0
  8  9  2  0
  8 10  1  0
 10 11  1  0
 11 12  1  0
 12 13  2  0
 12 14  1  0
 14 15  2  0
 15 16  1  0
 16 17  2  0
 17 18  1  0
 18 19  1  0
 19 20  2  0
 20 21  1  0
 21 22  2  0
 20 23  1  0
 23 24  1  0
 24 25  1  0
 25 26  1  0
  6 27  1  0
 27 28  1  0
 28  4  2  0
 22 14  1  0
 21 17  1  0
 26 19  1  0
  1 29  1  0
  1 30  1  0
  1 31  1  0
  2 32  1  0
  3 33  1  0
  3 34  1  0
  3 35  1  0
  5 36  1  0
  7 37  1  0
 10 38  1  0
 10 39  1  0
 15 40  1  0
 16 41  1  0
 18 42  1  0
 22 43  1  0
 23 44  1  0
 23 45  1  0
 24 46  1  0
 24 47  1  0
 25 48  1  0
 25 49  1  0
 26 50  1  0
 26 51  1  0
M  END
>  <Energy>  (309) 
1274.7153155024478

>  <compound_id>  (309) 
51669

>  <target_id>  (309) 
1

>  <reference_id>  (309) 
59

>  <inspiration_ids>  (309) 
[59, 39]

>  <energy_score>  (309) 
1188.382329010411

>  <distance_score>  (309) 
7.862895785927119

>  <path>  (309) 
/opt/xchem-fragalysis-2/maxwin/BulkDock/SCRATCH/511020/C51669-P59/C51669-P59.minimised.mol

>  <scratch_subdir>  (309) 
/opt/xchem-fragalysis-2/maxwin/BulkDock/SCRATCH/511020/C51669-P59

>  <fragmenstein_runtime>  (309) 
35.70474553108215

>  <fragmenstein_outcome>  (309) 
too moved

>  <fragmenstein_mode>  (309) 
expansion

>  <fragmenstein_error>  (309) 


$$$$
C51669-P39
     RDKit          3D

 51 54  0  0  0  0  0  0  0  0999 V2000
   -1.2907   -6.6465   34.1192 C   0  0  0  0  0  0  0  0  0  0  0  0
   -1.2812   -7.8319   33.1458 C   0  0  0  0  0  0  0  0  0  0  0  0
   -0.7903   -7.3029   31.7895 C   0  0  0  0  0  0  0  0  0  0  0  0
   -2.5913   -8.5802   33.0219 C   0  0  0  0  0  0  0  0  0  0  0  0
   -3.0500   -9.4503   31.9973 C   0  0  0  0  0  0  0  0  0  0  0  0
   -4.3915   -9.7682   32.2481 C   0  0  0  0  0  0  0  0  0  0  0  0
   -5.3858  -10.9380   31.9258 N   0  0  0  0  0  0  0  0  0  0  0  0
   -5.2657  -12.1682   30.8898 C   0  0  0  0  0  0  0  0  0  0  0  0
   -4.4109  -12.4138   30.0578 O   0  0  0  0  0  0  0  0  0  0  0  0
   -6.6846  -13.5838   31.1191 C   0  0  0  0  0  0  0  0  0  0  0  0
   -7.8907  -14.5434   32.1479 O   0  0  0  0  0  0  0  0  0  0  0  0
   -8.1276  -15.7530   33.0804 C   0  0  0  0  0  0  0  0  0  0  0  0
   -7.1765  -16.4719   33.4016 O   0  0  0  0  0  0  0  0  0  0  0  0
   -9.6875  -16.1075   33.8453 C   0  0  0  0  0  0  0  0  0  0  0  0
  -10.8240  -15.2524   34.0290 C   0  0  0  0  0  0  0  0  0  0  0  0
  -12.0071  -15.5339   34.7667 C   0  0  0  0  0  0  0  0  0  0  0  0
  -12.2170  -16.8588   35.1182 C   0  0  0  0  0  0  0  0  0  0  0  0
  -13.3910  -17.5080   35.4663 N   0  0  0  0  0  0  0  0  0  0  0  0
  -13.3550  -18.7752   34.9491 C   0  0  0  0  0  0  0  0  0  0  0  0
  -12.0521  -19.0012   34.5740 C   0  0  0  0  0  0  0  0  0  0  0  0
  -11.2256  -17.8153   34.8964 C   0  0  0  0  0  0  0  0  0  0  0  0
   -9.8653  -17.3485   34.4601 C   0  0  0  0  0  0  0  0  0  0  0  0
  -11.7646  -20.1488   33.6917 C   0  0  0  0  0  0  0  0  0  0  0  0
  -12.6154  -21.3667   33.9971 C   0  0  0  0  0  0  0  0  0  0  0  0
  -14.1250  -20.9946   33.9902 C   0  0  0  0  0  0  0  0  0  0  0  0
  -14.5247  -19.6550   34.6724 C   0  0  0  0  0  0  0  0  0  0  0  0
   -4.6580   -9.1299   33.4628 O   0  0  0  0  0  0  0  0  0  0  0  0
   -3.4715   -8.6410   34.0315 N   0  0  0  0  0  0  0  0  0  0  0  0
   -1.7757   -6.8887   35.0696 H   0  0  0  0  0  0  0  0  0  0  0  0
   -0.2631   -6.3382   34.3446 H   0  0  0  0  0  0  0  0  0  0  0  0
   -1.7841   -5.7844   33.6729 H   0  0  0  0  0  0  0  0  0  0  0  0
   -0.5486   -8.5472   33.5341 H   0  0  0  0  0  0  0  0  0  0  0  0
   -0.7317   -8.0863   31.0296 H   0  0  0  0  0  0  0  0  0  0  0  0
   -1.4616   -6.5309   31.4011 H   0  0  0  0  0  0  0  0  0  0  0  0
    0.2074   -6.8606   31.8857 H   0  0  0  0  0  0  0  0  0  0  0  0
   -2.3930   -9.9631   31.3162 H   0  0  0  0  0  0  0  0  0  0  0  0
   -6.1521  -11.0792   32.5125 H   0  0  0  0  0  0  0  0  0  0  0  0
   -6.8563  -12.9240   31.9547 H   0  0  0  0  0  0  0  0  0  0  0  0
   -6.1509  -14.4462   30.7568 H   0  0  0  0  0  0  0  0  0  0  0  0
  -10.7933  -14.2584   33.6346 H   0  0  0  0  0  0  0  0  0  0  0  0
  -12.7900  -14.7883   34.8470 H   0  0  0  0  0  0  0  0  0  0  0  0
  -14.2375  -17.0214   35.7193 H   0  0  0  0  0  0  0  0  0  0  0  0
   -9.0704  -18.0180   34.1330 H   0  0  0  0  0  0  0  0  0  0  0  0
  -11.9525  -20.0657   32.6489 H   0  0  0  0  0  0  0  0  0  0  0  0
  -10.7172  -20.1045   33.4794 H   0  0  0  0  0  0  0  0  0  0  0  0
  -12.4454  -22.1434   33.2402 H   0  0  0  0  0  0  0  0  0  0  0  0
  -12.3139  -21.8143   34.9392 H   0  0  0  0  0  0  0  0  0  0  0  0
  -14.4488  -20.9430   32.9421 H   0  0  0  0  0  0  0  0  0  0  0  0
  -14.7129  -21.8171   34.4148 H   0  0  0  0  0  0  0  0  0  0  0  0
  -15.0950  -19.8258   35.5816 H   0  0  0  0  0  0  0  0  0  0  0  0
  -15.2335  -19.1392   34.0170 H   0  0  0  0  0  0  0  0  0  0  0  0
  1  2  1  0
  2  3  1  0
  2  4  1  0
  4  5  1  0
  5  6  2  0
  6  7  1  0
  7  8  1  0
  8  9  2  0
  8 10  1  0
 10 11  1  0
 11 12  1  0
 12 13  2  0
 12 14  1  0
 14 15  2  0
 15 16  1  0
 16 17  2  0
 17 18  1  0
 18 19  1  0
 19 20  2  0
 20 21  1  0
 21 22  2  0
 20 23  1  0
 23 24  1  0
 24 25  1  0
 25 26  1  0
  6 27  1  0
 27 28  1  0
 28  4  2  0
 22 14  1  0
 21 17  1  0
 26 19  1  0
  1 29  1  0
  1 30  1  0
  1 31  1  0
  2 32  1  0
  3 33  1  0
  3 34  1  0
  3 35  1  0
  5 36  1  0
  7 37  1  0
 10 38  1  0
 10 39  1  0
 15 40  1  0
 16 41  1  0
 18 42  1  0
 22 43  1  0
 23 44  1  0
 23 45  1  0
 24 46  1  0
 24 47  1  0
 25 48  1  0
 25 49  1  0
 26 50  1  0
 26 51  1  0
M  END
>  <Energy>  (310) 
348.05186059474676

>  <compound_id>  (310) 
51669

>  <target_id>  (310) 
1

>  <reference_id>  (310) 
39

>  <inspiration_ids>  (310) 
[59, 39]

>  <energy_score>  (310) 
261.71887410270585

>  <distance_score>  (310) 
9.130579795390794

>  <path>  (310) 
/opt/xchem-fragalysis-2/maxwin/BulkDock/SCRATCH/511020/C51669-P39/C51669-P39.minimised.mol

>  <scratch_subdir>  (310) 
/opt/xchem-fragalysis-2/maxwin/BulkDock/SCRATCH/511020/C51669-P39

>  <fragmenstein_runtime>  (310) 
31.463918447494507

>  <fragmenstein_outcome>  (310) 
too moved

>  <fragmenstein_mode>  (310) 
expansion

>  <fragmenstein_error>  (310) 


$$$$
C51669-P59
     RDKit          3D

 51 54  0  0  0  0  0  0  0  0999 V2000
    0.2406   -7.7574   30.1826 C   0  0  0  0  0  0  0  0  0  0  0  0
   -0.7760   -8.7748   30.6968 C   0  0  0  0  0  0  0  0  0  0  0  0
   -1.8184   -7.9633   31.4635 C   0  0  0  0  0  0  0  0  0  0  0  0
   -1.2618   -9.9951   29.7633 C   0  0  0  0  0  0  0  0  0  0  0  0
   -1.7527  -11.2029   30.1327 C   0  0  0  0  0  0  0  0  0  0  0  0
   -2.8703  -12.1964   29.4222 C   0  0  0  0  0  0  0  0  0  0  0  0
   -3.4516  -13.8397   30.0029 N   0  0  0  0  0  0  0  0  0  0  0  0
   -5.2358  -14.4560   30.5047 C   0  0  0  0  0  0  0  0  0  0  0  0
   -6.2138  -13.7544   30.3611 O   0  0  0  0  0  0  0  0  0  0  0  0
   -5.7417  -16.0881   31.4427 C   0  0  0  0  0  0  0  0  0  0  0  0
   -6.8141  -17.6166   32.2039 O   0  0  0  0  0  0  0  0  0  0  0  0
   -8.0656  -18.4254   33.3012 C   0  0  0  0  0  0  0  0  0  0  0  0
   -8.7454  -17.5172   33.8945 O   0  0  0  0  0  0  0  0  0  0  0  0
   -8.8408  -20.2735   33.7867 C   0  0  0  0  0  0  0  0  0  0  0  0
   -9.8661  -19.4282   33.8791 C   0  0  0  0  0  0  0  0  0  0  0  0
  -10.7682  -19.4401   32.5247 C   0  0  0  0  0  0  0  0  0  0  0  0
  -11.2790  -20.4373   31.0333 C   0  0  0  0  0  0  0  0  0  0  0  0
  -12.2856  -20.6829   29.8540 N   0  0  0  0  0  0  0  0  0  0  0  0
  -11.8810  -21.5781   28.8769 C   0  0  0  0  0  0  0  0  0  0  0  0
  -10.9313  -22.2793   29.4666 C   0  0  0  0  0  0  0  0  0  0  0  0
  -10.8849  -21.6383   31.1235 C   0  0  0  0  0  0  0  0  0  0  0  0
   -9.6733  -21.4826   32.4599 C   0  0  0  0  0  0  0  0  0  0  0  0
  -10.1757  -23.3389   28.3874 C   0  0  0  0  0  0  0  0  0  0  0  0
  -10.8199  -23.7997   27.0740 C   0  0  0  0  0  0  0  0  0  0  0  0
  -12.1284  -23.1550   26.7967 C   0  0  0  0  0  0  0  0  0  0  0  0
  -12.2292  -21.7827   27.4451 C   0  0  0  0  0  0  0  0  0  0  0  0
   -2.5755  -11.4942   28.2080 O   0  0  0  0  0  0  0  0  0  0  0  0
   -1.2249  -10.2957   28.4677 N   0  0  0  0  0  0  0  0  0  0  0  0
   -0.1735   -6.7476   30.1425 H   0  0  0  0  0  0  0  0  0  0  0  0
    1.0693   -7.6596   30.8977 H   0  0  0  0  0  0  0  0  0  0  0  0
    0.6784   -8.0582   29.2286 H   0  0  0  0  0  0  0  0  0  0  0  0
   -0.3357   -9.2536   31.5680 H   0  0  0  0  0  0  0  0  0  0  0  0
   -1.3507   -7.3787   32.2656 H   0  0  0  0  0  0  0  0  0  0  0  0
   -2.2743   -7.2582   30.7793 H   0  0  0  0  0  0  0  0  0  0  0  0
   -2.5838   -8.5825   31.9263 H   0  0  0  0  0  0  0  0  0  0  0  0
   -1.3269  -11.4138   31.0715 H   0  0  0  0  0  0  0  0  0  0  0  0
   -2.7636  -14.5393   30.2798 H   0  0  0  0  0  0  0  0  0  0  0  0
   -6.2617  -15.4316   32.0816 H   0  0  0  0  0  0  0  0  0  0  0  0
   -4.7361  -16.1127   31.9015 H   0  0  0  0  0  0  0  0  0  0  0  0
  -10.1105  -18.7660   34.7072 H   0  0  0  0  0  0  0  0  0  0  0  0
  -11.6737  -18.9059   32.9483 H   0  0  0  0  0  0  0  0  0  0  0  0
  -12.9839  -20.0077   29.6084 H   0  0  0  0  0  0  0  0  0  0  0  0
   -9.5113  -22.6158   32.5963 H   0  0  0  0  0  0  0  0  0  0  0  0
   -9.2340  -22.8768   28.0890 H   0  0  0  0  0  0  0  0  0  0  0  0
   -9.9033  -24.2730   28.8629 H   0  0  0  0  0  0  0  0  0  0  0  0
  -10.1409  -23.7311   26.2472 H   0  0  0  0  0  0  0  0  0  0  0  0
  -10.8607  -24.8832   26.9377 H   0  0  0  0  0  0  0  0  0  0  0  0
  -12.2822  -23.0373   25.7183 H   0  0  0  0  0  0  0  0  0  0  0  0
  -12.9161  -23.8482   27.0853 H   0  0  0  0  0  0  0  0  0  0  0  0
  -13.2274  -21.5263   27.3150 H   0  0  0  0  0  0  0  0  0  0  0  0
  -11.6586  -21.1384   26.8100 H   0  0  0  0  0  0  0  0  0  0  0  0
  1  2  1  0
  2  3  1  0
  2  4  1  0
  4  5  1  0
  5  6  2  0
  6  7  1  0
  7  8  1  0
  8  9  2  0
  8 10  1  0
 10 11  1  0
 11 12  1  0
 12 13  2  0
 12 14  1  0
 14 15  2  0
 15 16  1  0
 16 17  2  0
 17 18  1  0
 18 19  1  0
 19 20  2  0
 20 21  1  0
 21 22  2  0
 20 23  1  0
 23 24  1  0
 24 25  1  0
 25 26  1  0
  6 27  1  0
 27 28  1  0
 28  4  2  0
 22 14  1  0
 21 17  1  0
 26 19  1  0
  1 29  1  0
  1 30  1  0
  1 31  1  0
  2 32  1  0
  3 33  1  0
  3 34  1  0
  3 35  1  0
  5 36  1  0
  7 37  1  0
 10 38  1  0
 10 39  1  0
 15 40  1  0
 16 41  1  0
 18 42  1  0
 22 43  1  0
 23 44  1  0
 23 45  1  0
 24 46  1  0
 24 47  1  0
 25 48  1  0
 25 49  1  0
 26 50  1  0
 26 51  1  0
M  END
>  <Energy>  (311) 
1274.7153155024478

>  <compound_id>  (311) 
51669

>  <target_id>  (311) 
1

>  <reference_id>  (311) 
59

>  <inspiration_ids>  (311) 
[59, 39]

>  <energy_score>  (311) 
1188.382329010411

>  <distance_score>  (311) 
7.862895785927119

>  <path>  (311) 
/opt/xchem-fragalysis-2/maxwin/BulkDock/SCRATCH/511020/C51669-P59/C51669-P59.minimised.mol

>  <scratch_subdir>  (311) 
/opt/xchem-fragalysis-2/maxwin/BulkDock/SCRATCH/511020/C51669-P59

>  <fragmenstein_runtime>  (311) 
23.056395530700684

>  <fragmenstein_outcome>  (311) 
too moved

>  <fragmenstein_mode>  (311) 
expansion

>  <fragmenstein_error>  (311) 


$$$$
C51669-P39
     RDKit          3D

 51 54  0  0  0  0  0  0  0  0999 V2000
   -1.2907   -6.6465   34.1192 C   0  0  0  0  0  0  0  0  0  0  0  0
   -1.2812   -7.8319   33.1458 C   0  0  0  0  0  0  0  0  0  0  0  0
   -0.7903   -7.3029   31.7895 C   0  0  0  0  0  0  0  0  0  0  0  0
   -2.5913   -8.5802   33.0219 C   0  0  0  0  0  0  0  0  0  0  0  0
   -3.0500   -9.4503   31.9973 C   0  0  0  0  0  0  0  0  0  0  0  0
   -4.3915   -9.7682   32.2481 C   0  0  0  0  0  0  0  0  0  0  0  0
   -5.3858  -10.9380   31.9258 N   0  0  0  0  0  0  0  0  0  0  0  0
   -5.2657  -12.1682   30.8898 C   0  0  0  0  0  0  0  0  0  0  0  0
   -4.4109  -12.4138   30.0578 O   0  0  0  0  0  0  0  0  0  0  0  0
   -6.6846  -13.5838   31.1191 C   0  0  0  0  0  0  0  0  0  0  0  0
   -7.8907  -14.5434   32.1479 O   0  0  0  0  0  0  0  0  0  0  0  0
   -8.1276  -15.7530   33.0804 C   0  0  0  0  0  0  0  0  0  0  0  0
   -7.1765  -16.4719   33.4016 O   0  0  0  0  0  0  0  0  0  0  0  0
   -9.6875  -16.1075   33.8453 C   0  0  0  0  0  0  0  0  0  0  0  0
  -10.8240  -15.2524   34.0290 C   0  0  0  0  0  0  0  0  0  0  0  0
  -12.0071  -15.5339   34.7667 C   0  0  0  0  0  0  0  0  0  0  0  0
  -12.2170  -16.8588   35.1182 C   0  0  0  0  0  0  0  0  0  0  0  0
  -13.3910  -17.5080   35.4663 N   0  0  0  0  0  0  0  0  0  0  0  0
  -13.3550  -18.7752   34.9491 C   0  0  0  0  0  0  0  0  0  0  0  0
  -12.0521  -19.0012   34.5740 C   0  0  0  0  0  0  0  0  0  0  0  0
  -11.2256  -17.8153   34.8964 C   0  0  0  0  0  0  0  0  0  0  0  0
   -9.8653  -17.3485   34.4601 C   0  0  0  0  0  0  0  0  0  0  0  0
  -11.7646  -20.1488   33.6917 C   0  0  0  0  0  0  0  0  0  0  0  0
  -12.6154  -21.3667   33.9971 C   0  0  0  0  0  0  0  0  0  0  0  0
  -14.1250  -20.9946   33.9902 C   0  0  0  0  0  0  0  0  0  0  0  0
  -14.5247  -19.6550   34.6724 C   0  0  0  0  0  0  0  0  0  0  0  0
   -4.6580   -9.1299   33.4628 O   0  0  0  0  0  0  0  0  0  0  0  0
   -3.4715   -8.6410   34.0315 N   0  0  0  0  0  0  0  0  0  0  0  0
   -1.7757   -6.8887   35.0696 H   0  0  0  0  0  0  0  0  0  0  0  0
   -0.2631   -6.3382   34.3446 H   0  0  0  0  0  0  0  0  0  0  0  0
   -1.7841   -5.7844   33.6729 H   0  0  0  0  0  0  0  0  0  0  0  0
   -0.5486   -8.5472   33.5341 H   0  0  0  0  0  0  0  0  0  0  0  0
   -0.7317   -8.0863   31.0296 H   0  0  0  0  0  0  0  0  0  0  0  0
   -1.4616   -6.5309   31.4011 H   0  0  0  0  0  0  0  0  0  0  0  0
    0.2074   -6.8606   31.8857 H   0  0  0  0  0  0  0  0  0  0  0  0
   -2.3930   -9.9631   31.3162 H   0  0  0  0  0  0  0  0  0  0  0  0
   -6.1521  -11.0792   32.5125 H   0  0  0  0  0  0  0  0  0  0  0  0
   -6.8563  -12.9240   31.9547 H   0  0  0  0  0  0  0  0  0  0  0  0
   -6.1509  -14.4462   30.7568 H   0  0  0  0  0  0  0  0  0  0  0  0
  -10.7933  -14.2584   33.6346 H   0  0  0  0  0  0  0  0  0  0  0  0
  -12.7900  -14.7883   34.8470 H   0  0  0  0  0  0  0  0  0  0  0  0
  -14.2375  -17.0214   35.7193 H   0  0  0  0  0  0  0  0  0  0  0  0
   -9.0704  -18.0180   34.1330 H   0  0  0  0  0  0  0  0  0  0  0  0
  -11.9525  -20.0657   32.6489 H   0  0  0  0  0  0  0  0  0  0  0  0
  -10.7172  -20.1045   33.4794 H   0  0  0  0  0  0  0  0  0  0  0  0
  -12.4454  -22.1434   33.2402 H   0  0  0  0  0  0  0  0  0  0  0  0
  -12.3139  -21.8143   34.9392 H   0  0  0  0  0  0  0  0  0  0  0  0
  -14.4488  -20.9430   32.9421 H   0  0  0  0  0  0  0  0  0  0  0  0
  -14.7129  -21.8171   34.4148 H   0  0  0  0  0  0  0  0  0  0  0  0
  -15.0950  -19.8258   35.5816 H   0  0  0  0  0  0  0  0  0  0  0  0
  -15.2335  -19.1392   34.0170 H   0  0  0  0  0  0  0  0  0  0  0  0
  1  2  1  0
  2  3  1  0
  2  4  1  0
  4  5  1  0
  5  6  2  0
  6  7  1  0
  7  8  1  0
  8  9  2  0
  8 10  1  0
 10 11  1  0
 11 12  1  0
 12 13  2  0
 12 14  1  0
 14 15  2  0
 15 16  1  0
 16 17  2  0
 17 18  1  0
 18 19  1  0
 19 20  2  0
 20 21  1  0
 21 22  2  0
 20 23  1  0
 23 24  1  0
 24 25  1  0
 25 26  1  0
  6 27  1  0
 27 28  1  0
 28  4  2  0
 22 14  1  0
 21 17  1  0
 26 19  1  0
  1 29  1  0
  1 30  1  0
  1 31  1  0
  2 32  1  0
  3 33  1  0
  3 34  1  0
  3 35  1  0
  5 36  1  0
  7 37  1  0
 10 38  1  0
 10 39  1  0
 15 40  1  0
 16 41  1  0
 18 42  1  0
 22 43  1  0
 23 44  1  0
 23 45  1  0
 24 46  1  0
 24 47  1  0
 25 48  1  0
 25 49  1  0
 26 50  1  0
 26 51  1  0
M  END
>  <Energy>  (312) 
348.05186059474676

>  <compound_id>  (312) 
51669

>  <target_id>  (312) 
1

>  <reference_id>  (312) 
39

>  <inspiration_ids>  (312) 
[59, 39]

>  <energy_score>  (312) 
261.71887410270585

>  <distance_score>  (312) 
9.130579795390794

>  <path>  (312) 
/opt/xchem-fragalysis-2/maxwin/BulkDock/SCRATCH/511020/C51669-P39/C51669-P39.minimised.mol

>  <scratch_subdir>  (312) 
/opt/xchem-fragalysis-2/maxwin/BulkDock/SCRATCH/511020/C51669-P39

>  <fragmenstein_runtime>  (312) 
39.92004632949829

>  <fragmenstein_outcome>  (312) 
too moved

>  <fragmenstein_mode>  (312) 
expansion

>  <fragmenstein_error>  (312) 


$$$$
C54330-P59
     RDKit          3D

 38 39  0  0  0  0  0  0  0  0999 V2000
   -2.0234    0.3460   27.1501 C   0  0  0  0  0  0  0  0  0  0  0  0
   -1.3717    0.7321   28.4077 C   0  0  0  0  0  0  0  0  0  0  0  0
   -0.1256    1.3710   28.5531 C   0  0  0  0  0  0  0  0  0  0  0  0
    0.1863    1.1610   29.8731 C   0  0  0  0  0  0  0  0  0  0  0  0
    1.4733    0.8061   30.4119 C   0  0  0  0  0  0  0  0  0  0  0  0
    2.4708    1.3677   30.2163 O   0  0  0  0  0  0  0  0  0  0  0  0
    1.1986   -0.4888   31.1729 N   0  0  0  0  0  0  0  0  0  0  0  0
    2.0869   -1.4091   31.7676 C   0  0  0  0  0  0  0  0  0  0  0  0
    1.5495   -2.7821   31.3737 C   0  0  0  0  0  0  0  0  0  0  0  0
    1.1647   -3.0028   29.8478 C   0  0  0  0  0  0  0  0  0  0  0  0
   -0.3852   -2.6531   29.7147 C   0  0  0  0  0  0  0  0  0  0  0  0
    2.1276   -2.5030   28.7165 N   0  0  0  0  0  0  0  0  0  0  0  0
    3.2650   -3.2782   27.9092 C   0  0  0  0  0  0  0  0  0  0  0  0
    3.5761   -4.4164   27.9334 O   0  0  0  0  0  0  0  0  0  0  0  0
    4.0720   -2.4832   26.8052 C   0  0  0  0  0  0  0  0  0  0  0  0
    4.0202   -1.2118   26.3874 N   0  0  0  0  0  0  0  0  0  0  0  0
    4.7468   -1.0952   25.2069 C   0  0  0  0  0  0  0  0  0  0  0  0
    5.2308   -2.3148   24.8674 C   0  0  0  0  0  0  0  0  0  0  0  0
    4.9850   -3.1293   25.9291 N   0  0  0  0  0  0  0  0  0  0  0  0
   -0.9224    0.6893   30.5205 O   0  0  0  0  0  0  0  0  0  0  0  0
   -1.8904    0.3750   29.5882 N   0  0  0  0  0  0  0  0  0  0  0  0
   -2.9198    0.9508   26.9837 H   0  0  0  0  0  0  0  0  0  0  0  0
   -1.3597    0.5121   26.3020 H   0  0  0  0  0  0  0  0  0  0  0  0
   -2.3069   -0.7110   27.1590 H   0  0  0  0  0  0  0  0  0  0  0  0
    0.5632    1.6537   27.7694 H   0  0  0  0  0  0  0  0  0  0  0  0
    0.1958   -0.6488   31.2182 H   0  0  0  0  0  0  0  0  0  0  0  0
    2.0838   -1.2719   32.8520 H   0  0  0  0  0  0  0  0  0  0  0  0
    3.0962   -1.2398   31.3820 H   0  0  0  0  0  0  0  0  0  0  0  0
    2.3378   -3.5078   31.6156 H   0  0  0  0  0  0  0  0  0  0  0  0
    0.7011   -3.0508   32.0157 H   0  0  0  0  0  0  0  0  0  0  0  0
    1.2106   -4.0931   29.7165 H   0  0  0  0  0  0  0  0  0  0  0  0
   -0.9516   -2.8237   30.6328 H   0  0  0  0  0  0  0  0  0  0  0  0
   -0.4875   -1.6345   29.3704 H   0  0  0  0  0  0  0  0  0  0  0  0
   -0.8136   -3.2831   28.9274 H   0  0  0  0  0  0  0  0  0  0  0  0
    2.1852   -1.5073   28.5160 H   0  0  0  0  0  0  0  0  0  0  0  0
    4.7778   -0.1560   24.6704 H   0  0  0  0  0  0  0  0  0  0  0  0
    5.7112   -2.6731   23.9927 H   0  0  0  0  0  0  0  0  0  0  0  0
    5.2239   -4.1084   26.0114 H   0  0  0  0  0  0  0  0  0  0  0  0
  1  2  1  0
  2  3  1  0
  3  4  2  0
  4  5  1  0
  5  6  2  0
  5  7  1  0
  7  8  1  0
  8  9  1  0
  9 10  1  0
 10 11  1  0
 10 12  1  0
 12 13  1  0
 13 14  2  0
 13 15  1  0
 15 16  2  0
 16 17  1  0
 17 18  2  0
 18 19  1  0
  4 20  1  0
 20 21  1  0
 21  2  2  0
 19 15  1  0
  1 22  1  0
  1 23  1  0
  1 24  1  0
  3 25  1  0
  7 26  1  0
  8 27  1  0
  8 28  1  0
  9 29  1  0
  9 30  1  0
 10 31  1  0
 11 32  1  0
 11 33  1  0
 11 34  1  0
 12 35  1  0
 17 36  1  0
 18 37  1  0
 19 38  1  0
M  END
>  <Energy>  (313) 
70.75230007462855

>  <compound_id>  (313) 
54330

>  <target_id>  (313) 
1

>  <reference_id>  (313) 
59

>  <inspiration_ids>  (313) 
[59, 80]

>  <energy_score>  (313) 
50.88366668659222

>  <distance_score>  (313) 
8.422628664943893

>  <path>  (313) 
/opt/xchem-fragalysis-2/maxwin/BulkDock/SCRATCH/511020/C54330-P59/C54330-P59.minimised.mol

>  <scratch_subdir>  (313) 
/opt/xchem-fragalysis-2/maxwin/BulkDock/SCRATCH/511020/C54330-P59

>  <fragmenstein_runtime>  (313) 
7.312327861785889

>  <fragmenstein_outcome>  (313) 
too moved

>  <fragmenstein_mode>  (313) 
expansion

>  <fragmenstein_error>  (313) 


$$$$
C54330-P80
     RDKit          3D

 38 39  0  0  0  0  0  0  0  0999 V2000
    0.6793    3.7049   30.2076 C   0  0  0  0  0  0  0  0  0  0  0  0
    0.3861    2.2874   30.4998 C   0  0  0  0  0  0  0  0  0  0  0  0
    0.6232    1.1823   29.6637 C   0  0  0  0  0  0  0  0  0  0  0  0
    0.1584    0.0970   30.3746 C   0  0  0  0  0  0  0  0  0  0  0  0
    0.0729   -1.3309   30.0939 C   0  0  0  0  0  0  0  0  0  0  0  0
   -0.6626   -2.0058   30.7502 O   0  0  0  0  0  0  0  0  0  0  0  0
    0.8843   -1.6629   28.9626 N   0  0  0  0  0  0  0  0  0  0  0  0
    0.9943   -2.8690   28.2143 C   0  0  0  0  0  0  0  0  0  0  0  0
    2.3024   -3.1195   27.4577 C   0  0  0  0  0  0  0  0  0  0  0  0
    2.9500   -1.9764   26.6430 C   0  0  0  0  0  0  0  0  0  0  0  0
    3.8654   -1.2174   27.6325 C   0  0  0  0  0  0  0  0  0  0  0  0
    3.5991   -2.0152   25.2491 N   0  0  0  0  0  0  0  0  0  0  0  0
    4.4673   -1.0525   24.5696 C   0  0  0  0  0  0  0  0  0  0  0  0
    4.9293   -0.0556   24.9918 O   0  0  0  0  0  0  0  0  0  0  0  0
    4.8505   -1.2075   22.8425 C   0  0  0  0  0  0  0  0  0  0  0  0
    5.5813   -1.8638   21.8754 N   0  0  0  0  0  0  0  0  0  0  0  0
    6.7008   -0.8379   20.8908 C   0  0  0  0  0  0  0  0  0  0  0  0
    6.1294    0.4508   20.9192 C   0  0  0  0  0  0  0  0  0  0  0  0
    4.8455    0.2434   21.8813 N   0  0  0  0  0  0  0  0  0  0  0  0
   -0.3439    0.5443   31.5627 O   0  0  0  0  0  0  0  0  0  0  0  0
   -0.1858    1.9163   31.6490 N   0  0  0  0  0  0  0  0  0  0  0  0
    1.7515    3.8460   30.0376 H   0  0  0  0  0  0  0  0  0  0  0  0
    0.1437    4.0302   29.3099 H   0  0  0  0  0  0  0  0  0  0  0  0
    0.3806    4.3582   31.0340 H   0  0  0  0  0  0  0  0  0  0  0  0
    1.0570    1.2071   28.6759 H   0  0  0  0  0  0  0  0  0  0  0  0
    1.3144   -0.8234   28.6097 H   0  0  0  0  0  0  0  0  0  0  0  0
    0.1442   -2.8497   27.5396 H   0  0  0  0  0  0  0  0  0  0  0  0
    0.8040   -3.7052   28.8980 H   0  0  0  0  0  0  0  0  0  0  0  0
    2.0765   -3.9578   26.8235 H   0  0  0  0  0  0  0  0  0  0  0  0
    3.0200   -3.4539   28.2126 H   0  0  0  0  0  0  0  0  0  0  0  0
    2.1420   -1.2611   26.4741 H   0  0  0  0  0  0  0  0  0  0  0  0
    3.4668   -1.1721   28.6495 H   0  0  0  0  0  0  0  0  0  0  0  0
    4.0194   -0.1828   27.3101 H   0  0  0  0  0  0  0  0  0  0  0  0
    4.8480   -1.6998   27.6832 H   0  0  0  0  0  0  0  0  0  0  0  0
    3.3096   -2.7188   24.5825 H   0  0  0  0  0  0  0  0  0  0  0  0
    7.4994   -1.3418   20.3665 H   0  0  0  0  0  0  0  0  0  0  0  0
    6.3385    1.4057   20.4766 H   0  0  0  0  0  0  0  0  0  0  0  0
    4.3945    0.9583   22.4008 H   0  0  0  0  0  0  0  0  0  0  0  0
  1  2  1  0
  2  3  1  0
  3  4  2  0
  4  5  1  0
  5  6  2  0
  5  7  1  0
  7  8  1  0
  8  9  1  0
  9 10  1  0
 10 11  1  0
 10 12  1  0
 12 13  1  0
 13 14  2  0
 13 15  1  0
 15 16  2  0
 16 17  1  0
 17 18  2  0
 18 19  1  0
  4 20  1  0
 20 21  1  0
 21  2  2  0
 19 15  1  0
  1 22  1  0
  1 23  1  0
  1 24  1  0
  3 25  1  0
  7 26  1  0
  8 27  1  0
  8 28  1  0
  9 29  1  0
  9 30  1  0
 10 31  1  0
 11 32  1  0
 11 33  1  0
 11 34  1  0
 12 35  1  0
 17 36  1  0
 18 37  1  0
 19 38  1  0
M  END
>  <Energy>  (314) 
190.14271835346352

>  <compound_id>  (314) 
54330

>  <target_id>  (314) 
1

>  <reference_id>  (314) 
80

>  <inspiration_ids>  (314) 
[59, 80]

>  <energy_score>  (314) 
173.95876777029972

>  <distance_score>  (314) 
7.924066643974634

>  <path>  (314) 
/opt/xchem-fragalysis-2/maxwin/BulkDock/SCRATCH/511020/C54330-P80/C54330-P80.minimised.mol

>  <scratch_subdir>  (314) 
/opt/xchem-fragalysis-2/maxwin/BulkDock/SCRATCH/511020/C54330-P80

>  <fragmenstein_runtime>  (314) 
17.676854848861694

>  <fragmenstein_outcome>  (314) 
too moved

>  <fragmenstein_mode>  (314) 
expansion

>  <fragmenstein_error>  (314) 


$$$$
C54331-P59
     RDKit          3D

 45 46  0  0  0  0  0  0  0  0999 V2000
    2.8228   -4.3910   28.1806 C   0  0  0  0  0  0  0  0  0  0  0  0
    3.1863   -2.9516   28.5572 C   0  0  0  0  0  0  0  0  0  0  0  0
    4.2036   -2.3149   27.4883 C   0  0  0  0  0  0  0  0  0  0  0  0
    4.9923   -3.2380   26.5363 N   0  0  0  0  0  0  0  0  0  0  0  0
    5.9800   -3.2032   27.6726 C   0  0  0  0  0  0  0  0  0  0  0  0
    5.6661   -2.9511   25.2773 C   0  0  0  0  0  0  0  0  0  0  0  0
    5.8516   -1.9013   24.7114 O   0  0  0  0  0  0  0  0  0  0  0  0
    6.1166   -4.2852   24.5201 C   0  0  0  0  0  0  0  0  0  0  0  0
    6.3874   -5.5079   25.4223 C   0  0  0  0  0  0  0  0  0  0  0  0
    4.8789   -4.6452   23.6572 C   0  0  0  0  0  0  0  0  0  0  0  0
    7.3630   -4.0777   23.6233 C   0  0  0  0  0  0  0  0  0  0  0  0
    7.5307   -4.2207   22.2500 C   0  0  0  0  0  0  0  0  0  0  0  0
    8.8804   -4.1388   22.0245 N   0  0  0  0  0  0  0  0  0  0  0  0
    9.4792   -3.8966   23.2250 C   0  0  0  0  0  0  0  0  0  0  0  0
    8.6024   -3.8676   24.2008 N   0  0  0  0  0  0  0  0  0  0  0  0
    1.9973   -2.0825   28.7005 N   0  0  0  0  0  0  0  0  0  0  0  0
    1.0048   -2.5033   29.6987 C   0  0  0  0  0  0  0  0  0  0  0  0
   -0.0918   -1.4868   29.7620 C   0  0  0  0  0  0  0  0  0  0  0  0
   -0.8528   -0.9577   28.6907 C   0  0  0  0  0  0  0  0  0  0  0  0
   -1.6667   -0.0349   29.2842 C   0  0  0  0  0  0  0  0  0  0  0  0
   -1.4667   -0.0444   30.6232 O   0  0  0  0  0  0  0  0  0  0  0  0
   -0.4839   -0.9674   30.9354 N   0  0  0  0  0  0  0  0  0  0  0  0
    3.7163   -5.0195   28.1096 H   0  0  0  0  0  0  0  0  0  0  0  0
    2.1830   -4.8593   28.9345 H   0  0  0  0  0  0  0  0  0  0  0  0
    2.3101   -4.4332   27.2186 H   0  0  0  0  0  0  0  0  0  0  0  0
    3.7055   -2.9718   29.5233 H   0  0  0  0  0  0  0  0  0  0  0  0
    3.5490   -1.8291   26.7506 H   0  0  0  0  0  0  0  0  0  0  0  0
    4.7227   -1.4184   27.8720 H   0  0  0  0  0  0  0  0  0  0  0  0
    5.6250   -3.6336   28.6168 H   0  0  0  0  0  0  0  0  0  0  0  0
    6.4878   -2.2322   27.7849 H   0  0  0  0  0  0  0  0  0  0  0  0
    6.8103   -3.8582   27.3909 H   0  0  0  0  0  0  0  0  0  0  0  0
    7.2891   -5.3768   26.0288 H   0  0  0  0  0  0  0  0  0  0  0  0
    5.5508   -5.7230   26.0953 H   0  0  0  0  0  0  0  0  0  0  0  0
    6.5537   -6.4090   24.8181 H   0  0  0  0  0  0  0  0  0  0  0  0
    5.0455   -5.5533   23.0660 H   0  0  0  0  0  0  0  0  0  0  0  0
    4.6307   -3.8360   22.9594 H   0  0  0  0  0  0  0  0  0  0  0  0
    3.9940   -4.8134   24.2828 H   0  0  0  0  0  0  0  0  0  0  0  0
    6.8300   -4.4226   21.4537 H   0  0  0  0  0  0  0  0  0  0  0  0
    9.3785   -4.2428   21.1464 H   0  0  0  0  0  0  0  0  0  0  0  0
   10.5486   -3.7607   23.3283 H   0  0  0  0  0  0  0  0  0  0  0  0
    1.5406   -1.9674   27.7948 H   0  0  0  0  0  0  0  0  0  0  0  0
    0.5553   -3.4648   29.4289 H   0  0  0  0  0  0  0  0  0  0  0  0
    1.4833   -2.6073   30.6791 H   0  0  0  0  0  0  0  0  0  0  0  0
   -0.7893   -1.1832   27.6364 H   0  0  0  0  0  0  0  0  0  0  0  0
   -2.3961    0.6700   28.9182 H   0  0  0  0  0  0  0  0  0  0  0  0
  1  2  1  0
  2  3  1  0
  3  4  1  0
  4  5  1  0
  4  6  1  0
  6  7  2  0
  6  8  1  0
  8  9  1  0
  8 10  1  0
  8 11  1  0
 11 12  2  0
 12 13  1  0
 13 14  1  0
 14 15  2  0
  2 16  1  0
 16 17  1  0
 17 18  1  0
 18 19  1  0
 19 20  2  0
 20 21  1  0
 21 22  1  0
 15 11  1  0
 22 18  2  0
  1 23  1  0
  1 24  1  0
  1 25  1  0
  2 26  1  0
  3 27  1  0
  3 28  1  0
  5 29  1  0
  5 30  1  0
  5 31  1  0
  9 32  1  0
  9 33  1  0
  9 34  1  0
 10 35  1  0
 10 36  1  0
 10 37  1  0
 12 38  1  0
 13 39  1  0
 14 40  1  0
 16 41  1  0
 17 42  1  0
 17 43  1  0
 19 44  1  0
 20 45  1  0
M  END
>  <Energy>  (315) 
138.1183407160959

>  <compound_id>  (315) 
54331

>  <target_id>  (315) 
1

>  <reference_id>  (315) 
59

>  <inspiration_ids>  (315) 
[59, 80]

>  <energy_score>  (315) 
18.136851555844316

>  <distance_score>  (315) 
8.368112300145057

>  <path>  (315) 
/opt/xchem-fragalysis-2/maxwin/BulkDock/SCRATCH/511020/C54331-P59/C54331-P59.minimised.mol

>  <scratch_subdir>  (315) 
/opt/xchem-fragalysis-2/maxwin/BulkDock/SCRATCH/511020/C54331-P59

>  <fragmenstein_runtime>  (315) 
6.490216016769409

>  <fragmenstein_outcome>  (315) 
too moved

>  <fragmenstein_mode>  (315) 
expansion

>  <fragmenstein_error>  (315) 


$$$$
C54331-P80
     RDKit          3D

 45 46  0  0  0  0  0  0  0  0999 V2000
    2.7184   -2.4825   28.7010 C   0  0  0  0  0  0  0  0  0  0  0  0
    2.3787   -1.1374   29.3545 C   0  0  0  0  0  0  0  0  0  0  0  0
    2.6068    0.0597   28.3435 C   0  0  0  0  0  0  0  0  0  0  0  0
    4.0657    0.1498   27.8175 N   0  0  0  0  0  0  0  0  0  0  0  0
    3.5491    1.4479   27.2493 C   0  0  0  0  0  0  0  0  0  0  0  0
    4.7485   -0.6095   26.7868 C   0  0  0  0  0  0  0  0  0  0  0  0
    4.3273   -1.4374   26.0216 O   0  0  0  0  0  0  0  0  0  0  0  0
    6.3453   -0.3247   26.7931 C   0  0  0  0  0  0  0  0  0  0  0  0
    6.7470    1.0834   27.2990 C   0  0  0  0  0  0  0  0  0  0  0  0
    6.9287   -1.3093   27.8341 C   0  0  0  0  0  0  0  0  0  0  0  0
    7.0339   -0.5683   25.4084 C   0  0  0  0  0  0  0  0  0  0  0  0
    6.6506   -1.3143   24.3079 C   0  0  0  0  0  0  0  0  0  0  0  0
    7.6499   -1.2045   23.3849 N   0  0  0  0  0  0  0  0  0  0  0  0
    8.6151   -0.4082   23.9209 C   0  0  0  0  0  0  0  0  0  0  0  0
    8.2728    0.0109   25.1184 N   0  0  0  0  0  0  0  0  0  0  0  0
    0.9728   -1.2213   29.8367 N   0  0  0  0  0  0  0  0  0  0  0  0
    0.6811   -0.2895   30.9293 C   0  0  0  0  0  0  0  0  0  0  0  0
   -0.7321   -0.4697   31.3871 C   0  0  0  0  0  0  0  0  0  0  0  0
   -1.3661   -1.6537   31.8398 C   0  0  0  0  0  0  0  0  0  0  0  0
   -2.6271   -1.2495   32.1831 C   0  0  0  0  0  0  0  0  0  0  0  0
   -2.7567    0.0782   31.9512 O   0  0  0  0  0  0  0  0  0  0  0  0
   -1.5659    0.5784   31.4616 N   0  0  0  0  0  0  0  0  0  0  0  0
    2.5013   -3.3189   29.3757 H   0  0  0  0  0  0  0  0  0  0  0  0
    2.1507   -2.6372   27.7772 H   0  0  0  0  0  0  0  0  0  0  0  0
    3.7849   -2.5459   28.4687 H   0  0  0  0  0  0  0  0  0  0  0  0
    3.0573   -1.0144   30.2085 H   0  0  0  0  0  0  0  0  0  0  0  0
    1.9158   -0.1408   27.5089 H   0  0  0  0  0  0  0  0  0  0  0  0
    2.3085    0.9413   28.9303 H   0  0  0  0  0  0  0  0  0  0  0  0
    4.3580    1.8780   26.6542 H   0  0  0  0  0  0  0  0  0  0  0  0
    3.3706    2.2206   28.0109 H   0  0  0  0  0  0  0  0  0  0  0  0
    2.7455    1.3483   26.5049 H   0  0  0  0  0  0  0  0  0  0  0  0
    6.4982    1.8694   26.5829 H   0  0  0  0  0  0  0  0  0  0  0  0
    6.2765    1.3332   28.2557 H   0  0  0  0  0  0  0  0  0  0  0  0
    7.8306    1.1508   27.4605 H   0  0  0  0  0  0  0  0  0  0  0  0
    8.0238   -1.2671   27.8604 H   0  0  0  0  0  0  0  0  0  0  0  0
    6.6474   -2.3417   27.6237 H   0  0  0  0  0  0  0  0  0  0  0  0
    6.5578   -1.0848   28.8414 H   0  0  0  0  0  0  0  0  0  0  0  0
    5.7625   -1.9049   24.1208 H   0  0  0  0  0  0  0  0  0  0  0  0
    7.6612   -1.6599   22.4862 H   0  0  0  0  0  0  0  0  0  0  0  0
    9.5414   -0.1692   23.4177 H   0  0  0  0  0  0  0  0  0  0  0  0
    0.7960   -2.1713   30.1561 H   0  0  0  0  0  0  0  0  0  0  0  0
    0.8307    0.7448   30.6015 H   0  0  0  0  0  0  0  0  0  0  0  0
    1.3496   -0.4743   31.7787 H   0  0  0  0  0  0  0  0  0  0  0  0
   -0.9514   -2.6464   31.9196 H   0  0  0  0  0  0  0  0  0  0  0  0
   -3.4972   -1.7408   32.5919 H   0  0  0  0  0  0  0  0  0  0  0  0
  1  2  1  0
  2  3  1  0
  3  4  1  0
  4  5  1  0
  4  6  1  0
  6  7  2  0
  6  8  1  0
  8  9  1  0
  8 10  1  0
  8 11  1  0
 11 12  2  0
 12 13  1  0
 13 14  1  0
 14 15  2  0
  2 16  1  0
 16 17  1  0
 17 18  1  0
 18 19  1  0
 19 20  2  0
 20 21  1  0
 21 22  1  0
 15 11  1  0
 22 18  2  0
  1 23  1  0
  1 24  1  0
  1 25  1  0
  2 26  1  0
  3 27  1  0
  3 28  1  0
  5 29  1  0
  5 30  1  0
  5 31  1  0
  9 32  1  0
  9 33  1  0
  9 34  1  0
 10 35  1  0
 10 36  1  0
 10 37  1  0
 12 38  1  0
 13 39  1  0
 14 40  1  0
 16 41  1  0
 17 42  1  0
 17 43  1  0
 19 44  1  0
 20 45  1  0
M  END
>  <Energy>  (316) 
131.58768856369986

>  <compound_id>  (316) 
54331

>  <target_id>  (316) 
1

>  <reference_id>  (316) 
80

>  <inspiration_ids>  (316) 
[59, 80]

>  <energy_score>  (316) 
11.606199403448983

>  <distance_score>  (316) 
8.343720272678418

>  <path>  (316) 
/opt/xchem-fragalysis-2/maxwin/BulkDock/SCRATCH/511020/C54331-P80/C54331-P80.minimised.mol

>  <scratch_subdir>  (316) 
/opt/xchem-fragalysis-2/maxwin/BulkDock/SCRATCH/511020/C54331-P80

>  <fragmenstein_runtime>  (316) 
12.004116296768188

>  <fragmenstein_outcome>  (316) 
too moved

>  <fragmenstein_mode>  (316) 
expansion

>  <fragmenstein_error>  (316) 


$$$$
C54332-P59
     RDKit          3D

 42 43  0  0  0  0  0  0  0  0999 V2000
   -1.9403   -2.0480   31.7315 C   0  0  0  0  0  0  0  0  0  0  0  0
   -1.7284   -2.4921   30.3958 O   0  0  0  0  0  0  0  0  0  0  0  0
   -1.7924   -1.4288   29.4367 C   0  0  0  0  0  0  0  0  0  0  0  0
   -0.4935   -0.7356   29.3964 C   0  0  0  0  0  0  0  0  0  0  0  0
    0.6866   -0.9469   28.7304 C   0  0  0  0  0  0  0  0  0  0  0  0
    1.5354    0.1197   29.1440 C   0  0  0  0  0  0  0  0  0  0  0  0
    2.9428    0.4321   28.7606 C   0  0  0  0  0  0  0  0  0  0  0  0
    3.5875    1.1016   29.5115 O   0  0  0  0  0  0  0  0  0  0  0  0
    3.2877   -0.1494   27.4932 N   0  0  0  0  0  0  0  0  0  0  0  0
    4.5407   -0.1867   26.7797 C   0  0  0  0  0  0  0  0  0  0  0  0
    4.8058    1.1251   26.0402 C   0  0  0  0  0  0  0  0  0  0  0  0
    3.9985    1.2439   24.7195 C   0  0  0  0  0  0  0  0  0  0  0  0
    3.1399    2.5119   24.7653 C   0  0  0  0  0  0  0  0  0  0  0  0
    4.8521    1.1261   23.4873 N   0  0  0  0  0  0  0  0  0  0  0  0
    4.4562    1.2107   21.8347 C   0  0  0  0  0  0  0  0  0  0  0  0
    3.3302    1.3055   21.4060 O   0  0  0  0  0  0  0  0  0  0  0  0
    5.7420    1.3476   20.3678 C   0  0  0  0  0  0  0  0  0  0  0  0
    6.3088    0.3989   19.5466 N   0  0  0  0  0  0  0  0  0  0  0  0
    7.1045    0.9798   18.5917 C   0  0  0  0  0  0  0  0  0  0  0  0
    7.1818    2.3172   18.8006 C   0  0  0  0  0  0  0  0  0  0  0  0
    6.3644    2.5439   19.8659 N   0  0  0  0  0  0  0  0  0  0  0  0
    0.8833    0.9021   30.0259 N   0  0  0  0  0  0  0  0  0  0  0  0
   -0.3802    0.3769   30.1620 O   0  0  0  0  0  0  0  0  0  0  0  0
   -1.1513   -1.3614   32.0498 H   0  0  0  0  0  0  0  0  0  0  0  0
   -2.9204   -1.5708   31.8263 H   0  0  0  0  0  0  0  0  0  0  0  0
   -1.9167   -2.9223   32.3874 H   0  0  0  0  0  0  0  0  0  0  0  0
   -2.0023   -1.8733   28.4602 H   0  0  0  0  0  0  0  0  0  0  0  0
   -2.6079   -0.7389   29.6743 H   0  0  0  0  0  0  0  0  0  0  0  0
    0.8891   -1.7657   28.0580 H   0  0  0  0  0  0  0  0  0  0  0  0
    2.5201   -0.7237   27.1747 H   0  0  0  0  0  0  0  0  0  0  0  0
    5.3260   -0.3379   27.5281 H   0  0  0  0  0  0  0  0  0  0  0  0
    4.5374   -1.0477   26.1042 H   0  0  0  0  0  0  0  0  0  0  0  0
    5.8771    1.1747   25.8170 H   0  0  0  0  0  0  0  0  0  0  0  0
    4.5943    1.9686   26.7093 H   0  0  0  0  0  0  0  0  0  0  0  0
    3.3374    0.3831   24.7268 H   0  0  0  0  0  0  0  0  0  0  0  0
    2.4755    2.5136   25.6354 H   0  0  0  0  0  0  0  0  0  0  0  0
    3.7761    3.4026   24.8176 H   0  0  0  0  0  0  0  0  0  0  0  0
    2.5298    2.6108   23.8640 H   0  0  0  0  0  0  0  0  0  0  0  0
    5.7949    0.9739   23.5734 H   0  0  0  0  0  0  0  0  0  0  0  0
    7.5793    0.4120   17.8078 H   0  0  0  0  0  0  0  0  0  0  0  0
    7.6992    3.1140   18.2861 H   0  0  0  0  0  0  0  0  0  0  0  0
    6.1305    3.4512   20.2244 H   0  0  0  0  0  0  0  0  0  0  0  0
  1  2  1  0
  2  3  1  0
  3  4  1  0
  4  5  2  0
  5  6  1  0
  6  7  1  0
  7  8  2  0
  7  9  1  0
  9 10  1  0
 10 11  1  0
 11 12  1  0
 12 13  1  0
 12 14  1  0
 14 15  1  0
 15 16  2  0
 15 17  1  0
 17 18  2  0
 18 19  1  0
 19 20  2  0
 20 21  1  0
  6 22  2  0
 22 23  1  0
 23  4  1  0
 21 17  1  0
  1 24  1  0
  1 25  1  0
  1 26  1  0
  3 27  1  0
  3 28  1  0
  5 29  1  0
  9 30  1  0
 10 31  1  0
 10 32  1  0
 11 33  1  0
 11 34  1  0
 12 35  1  0
 13 36  1  0
 13 37  1  0
 13 38  1  0
 14 39  1  0
 19 40  1  0
 20 41  1  0
 21 42  1  0
M  END
>  <Energy>  (317) 
163.49210319742878

>  <compound_id>  (317) 
54332

>  <target_id>  (317) 
1

>  <reference_id>  (317) 
59

>  <inspiration_ids>  (317) 
[59, 80]

>  <energy_score>  (317) 
99.68155001412225

>  <distance_score>  (317) 
8.580755205662706

>  <path>  (317) 
/opt/xchem-fragalysis-2/maxwin/BulkDock/SCRATCH/511020/C54332-P59/C54332-P59.minimised.mol

>  <scratch_subdir>  (317) 
/opt/xchem-fragalysis-2/maxwin/BulkDock/SCRATCH/511020/C54332-P59

>  <fragmenstein_runtime>  (317) 
12.862149000167847

>  <fragmenstein_outcome>  (317) 
too moved

>  <fragmenstein_mode>  (317) 
expansion

>  <fragmenstein_error>  (317) 


$$$$
C54332-P80
     RDKit          3D

 42 43  0  0  0  0  0  0  0  0999 V2000
   -1.2131    0.7041   32.6646 C   0  0  0  0  0  0  0  0  0  0  0  0
   -0.8330    1.3621   31.4598 O   0  0  0  0  0  0  0  0  0  0  0  0
   -1.1770    0.6228   30.2846 C   0  0  0  0  0  0  0  0  0  0  0  0
   -0.1894   -0.4523   30.0962 C   0  0  0  0  0  0  0  0  0  0  0  0
    1.0854   -0.5113   29.5926 C   0  0  0  0  0  0  0  0  0  0  0  0
    1.4366   -1.8895   29.6448 C   0  0  0  0  0  0  0  0  0  0  0  0
    2.6349   -2.5989   29.1074 C   0  0  0  0  0  0  0  0  0  0  0  0
    2.5096   -3.7657   28.8823 O   0  0  0  0  0  0  0  0  0  0  0  0
    3.7408   -1.7087   28.8629 N   0  0  0  0  0  0  0  0  0  0  0  0
    5.0041   -1.9259   28.1843 C   0  0  0  0  0  0  0  0  0  0  0  0
    5.2878   -1.0745   26.9208 C   0  0  0  0  0  0  0  0  0  0  0  0
    4.1801   -1.0149   25.8481 C   0  0  0  0  0  0  0  0  0  0  0  0
    3.0408   -0.1993   26.5416 C   0  0  0  0  0  0  0  0  0  0  0  0
    4.4804   -0.3023   24.5642 N   0  0  0  0  0  0  0  0  0  0  0  0
    4.8972   -0.8381   23.1966 C   0  0  0  0  0  0  0  0  0  0  0  0
    5.1604   -1.9540   22.8589 O   0  0  0  0  0  0  0  0  0  0  0  0
    5.2153    0.4417   21.7125 C   0  0  0  0  0  0  0  0  0  0  0  0
    6.2928    1.4893   21.7748 N   0  0  0  0  0  0  0  0  0  0  0  0
    6.7862    2.0308   20.5556 C   0  0  0  0  0  0  0  0  0  0  0  0
    6.5638    1.0960   19.6307 C   0  0  0  0  0  0  0  0  0  0  0  0
    6.4281    0.1278   20.5890 N   0  0  0  0  0  0  0  0  0  0  0  0
    0.4320   -2.5880   30.2117 N   0  0  0  0  0  0  0  0  0  0  0  0
   -0.5745   -1.6918   30.4800 O   0  0  0  0  0  0  0  0  0  0  0  0
   -2.2871    0.4943   32.6666 H   0  0  0  0  0  0  0  0  0  0  0  0
   -0.9903    1.3731   33.5004 H   0  0  0  0  0  0  0  0  0  0  0  0
   -0.6451   -0.2195   32.8055 H   0  0  0  0  0  0  0  0  0  0  0  0
   -1.1329    1.3144   29.4370 H   0  0  0  0  0  0  0  0  0  0  0  0
   -2.2043    0.2476   30.3498 H   0  0  0  0  0  0  0  0  0  0  0  0
    1.6417    0.3202   29.1903 H   0  0  0  0  0  0  0  0  0  0  0  0
    3.5293   -0.8045   29.2581 H   0  0  0  0  0  0  0  0  0  0  0  0
    5.0542   -2.9815   27.9391 H   0  0  0  0  0  0  0  0  0  0  0  0
    5.7904   -1.7318   28.9219 H   0  0  0  0  0  0  0  0  0  0  0  0
    6.2058   -1.4647   26.4699 H   0  0  0  0  0  0  0  0  0  0  0  0
    5.5423   -0.0526   27.2349 H   0  0  0  0  0  0  0  0  0  0  0  0
    3.8430   -2.0217   25.5828 H   0  0  0  0  0  0  0  0  0  0  0  0
    2.1703   -0.8306   26.7274 H   0  0  0  0  0  0  0  0  0  0  0  0
    2.7747    0.6872   25.9616 H   0  0  0  0  0  0  0  0  0  0  0  0
    3.3468    0.2545   27.4876 H   0  0  0  0  0  0  0  0  0  0  0  0
    4.2574    0.6460   24.4815 H   0  0  0  0  0  0  0  0  0  0  0  0
    7.0706    3.0670   20.5307 H   0  0  0  0  0  0  0  0  0  0  0  0
    6.6974    0.9399   18.5728 H   0  0  0  0  0  0  0  0  0  0  0  0
    6.5411   -0.8594   20.4367 H   0  0  0  0  0  0  0  0  0  0  0  0
  1  2  1  0
  2  3  1  0
  3  4  1  0
  4  5  2  0
  5  6  1  0
  6  7  1  0
  7  8  2  0
  7  9  1  0
  9 10  1  0
 10 11  1  0
 11 12  1  0
 12 13  1  0
 12 14  1  0
 14 15  1  0
 15 16  2  0
 15 17  1  0
 17 18  2  0
 18 19  1  0
 19 20  2  0
 20 21  1  0
  6 22  2  0
 22 23  1  0
 23  4  1  0
 21 17  1  0
  1 24  1  0
  1 25  1  0
  1 26  1  0
  3 27  1  0
  3 28  1  0
  5 29  1  0
  9 30  1  0
 10 31  1  0
 10 32  1  0
 11 33  1  0
 11 34  1  0
 12 35  1  0
 13 36  1  0
 13 37  1  0
 13 38  1  0
 14 39  1  0
 19 40  1  0
 20 41  1  0
 21 42  1  0
M  END
>  <Energy>  (318) 
240.99582045285749

>  <compound_id>  (318) 
54332

>  <target_id>  (318) 
1

>  <reference_id>  (318) 
80

>  <inspiration_ids>  (318) 
[59, 80]

>  <energy_score>  (318) 
177.18526726955167

>  <distance_score>  (318) 
8.58772874862357

>  <path>  (318) 
/opt/xchem-fragalysis-2/maxwin/BulkDock/SCRATCH/511020/C54332-P80/C54332-P80.minimised.mol

>  <scratch_subdir>  (318) 
/opt/xchem-fragalysis-2/maxwin/BulkDock/SCRATCH/511020/C54332-P80

>  <fragmenstein_runtime>  (318) 
15.515154123306274

>  <fragmenstein_outcome>  (318) 
too moved

>  <fragmenstein_mode>  (318) 
expansion

>  <fragmenstein_error>  (318) 


$$$$
C54333-P59
     RDKit          3D

 38 39  0  0  0  0  0  0  0  0999 V2000
   -0.7357    0.8250   27.5828 C   0  0  0  0  0  0  0  0  0  0  0  0
   -1.2014    0.5209   28.9444 C   0  0  0  0  0  0  0  0  0  0  0  0
   -2.1283   -0.3567   29.4491 C   0  0  0  0  0  0  0  0  0  0  0  0
   -1.8103   -0.4285   30.8351 C   0  0  0  0  0  0  0  0  0  0  0  0
   -1.6945   -1.7338   31.4887 C   0  0  0  0  0  0  0  0  0  0  0  0
   -2.5561   -2.4912   31.6887 O   0  0  0  0  0  0  0  0  0  0  0  0
   -0.1856   -1.8596   31.7249 N   0  0  0  0  0  0  0  0  0  0  0  0
    0.5891   -2.9615   32.1620 C   0  0  0  0  0  0  0  0  0  0  0  0
    1.7055   -3.0174   31.1116 C   0  0  0  0  0  0  0  0  0  0  0  0
    1.3937   -3.4819   29.6219 C   0  0  0  0  0  0  0  0  0  0  0  0
   -0.1010   -3.1727   29.2628 C   0  0  0  0  0  0  0  0  0  0  0  0
    2.4178   -3.0348   28.5187 N   0  0  0  0  0  0  0  0  0  0  0  0
    3.9836   -3.2859   28.4032 C   0  0  0  0  0  0  0  0  0  0  0  0
    4.7310   -3.7950   29.1587 O   0  0  0  0  0  0  0  0  0  0  0  0
    4.6637   -2.8014   27.0781 C   0  0  0  0  0  0  0  0  0  0  0  0
    4.1741   -2.6623   25.8436 N   0  0  0  0  0  0  0  0  0  0  0  0
    5.1451   -2.0601   25.0622 C   0  0  0  0  0  0  0  0  0  0  0  0
    6.2875   -1.8779   25.7964 C   0  0  0  0  0  0  0  0  0  0  0  0
    6.0460   -2.5491   26.9597 N   0  0  0  0  0  0  0  0  0  0  0  0
   -0.9471    0.5530   31.1681 N   0  0  0  0  0  0  0  0  0  0  0  0
   -0.5265    1.1025   29.9679 O   0  0  0  0  0  0  0  0  0  0  0  0
   -0.6153    1.9040   27.4464 H   0  0  0  0  0  0  0  0  0  0  0  0
    0.2282    0.3430   27.3936 H   0  0  0  0  0  0  0  0  0  0  0  0
   -1.4514    0.4678   26.8360 H   0  0  0  0  0  0  0  0  0  0  0  0
   -2.6571   -1.0836   28.8500 H   0  0  0  0  0  0  0  0  0  0  0  0
    0.2678   -0.9689   31.5125 H   0  0  0  0  0  0  0  0  0  0  0  0
   -0.0104   -3.8741   32.1973 H   0  0  0  0  0  0  0  0  0  0  0  0
    0.9899   -2.7336   33.1530 H   0  0  0  0  0  0  0  0  0  0  0  0
    2.4859   -3.6934   31.4866 H   0  0  0  0  0  0  0  0  0  0  0  0
    2.1953   -2.0349   31.0455 H   0  0  0  0  0  0  0  0  0  0  0  0
    1.4971   -4.5748   29.6170 H   0  0  0  0  0  0  0  0  0  0  0  0
   -0.2298   -2.1006   29.1664 H   0  0  0  0  0  0  0  0  0  0  0  0
   -0.8046   -3.6491   29.9439 H   0  0  0  0  0  0  0  0  0  0  0  0
   -0.3095   -3.5803   28.2691 H   0  0  0  0  0  0  0  0  0  0  0  0
    2.0705   -2.6430   27.6480 H   0  0  0  0  0  0  0  0  0  0  0  0
    4.8890   -1.7402   24.0632 H   0  0  0  0  0  0  0  0  0  0  0  0
    7.2469   -1.4141   25.6274 H   0  0  0  0  0  0  0  0  0  0  0  0
    6.6856   -2.6688   27.7321 H   0  0  0  0  0  0  0  0  0  0  0  0
  1  2  1  0
  2  3  2  0
  3  4  1  0
  4  5  1  0
  5  6  2  0
  5  7  1  0
  7  8  1  0
  8  9  1  0
  9 10  1  0
 10 11  1  0
 10 12  1  0
 12 13  1  0
 13 14  2  0
 13 15  1  0
 15 16  2  0
 16 17  1  0
 17 18  2  0
 18 19  1  0
  4 20  2  0
 20 21  1  0
 21  2  1  0
 19 15  1  0
  1 22  1  0
  1 23  1  0
  1 24  1  0
  3 25  1  0
  7 26  1  0
  8 27  1  0
  8 28  1  0
  9 29  1  0
  9 30  1  0
 10 31  1  0
 11 32  1  0
 11 33  1  0
 11 34  1  0
 12 35  1  0
 17 36  1  0
 18 37  1  0
 19 38  1  0
M  END
>  <Energy>  (319) 
89.32986624487701

>  <compound_id>  (319) 
54333

>  <target_id>  (319) 
1

>  <reference_id>  (319) 
59

>  <inspiration_ids>  (319) 
[59, 80]

>  <energy_score>  (319) 
50.87601183387852

>  <distance_score>  (319) 
8.09435417624585

>  <path>  (319) 
/opt/xchem-fragalysis-2/maxwin/BulkDock/SCRATCH/511020/C54333-P59/C54333-P59.minimised.mol

>  <scratch_subdir>  (319) 
/opt/xchem-fragalysis-2/maxwin/BulkDock/SCRATCH/511020/C54333-P59

>  <fragmenstein_runtime>  (319) 
10.938097476959229

>  <fragmenstein_outcome>  (319) 
too moved

>  <fragmenstein_mode>  (319) 
expansion

>  <fragmenstein_error>  (319) 


$$$$
C54333-P80
     RDKit          3D

 38 39  0  0  0  0  0  0  0  0999 V2000
   -0.8100    3.0279   25.8980 C   0  0  0  0  0  0  0  0  0  0  0  0
   -0.6545    2.2714   27.1464 C   0  0  0  0  0  0  0  0  0  0  0  0
   -1.5334    1.7849   28.0773 C   0  0  0  0  0  0  0  0  0  0  0  0
   -0.7098    1.2029   29.0661 C   0  0  0  0  0  0  0  0  0  0  0  0
   -1.1147    0.5388   30.3152 C   0  0  0  0  0  0  0  0  0  0  0  0
   -2.2751    0.4253   30.5792 O   0  0  0  0  0  0  0  0  0  0  0  0
    0.0450    0.0929   31.0095 N   0  0  0  0  0  0  0  0  0  0  0  0
    0.1846   -0.7075   32.1842 C   0  0  0  0  0  0  0  0  0  0  0  0
    1.2364   -1.7949   32.0061 C   0  0  0  0  0  0  0  0  0  0  0  0
    1.1334   -2.6803   30.7413 C   0  0  0  0  0  0  0  0  0  0  0  0
   -0.3201   -3.0397   30.3884 C   0  0  0  0  0  0  0  0  0  0  0  0
    1.9057   -2.1693   29.5990 N   0  0  0  0  0  0  0  0  0  0  0  0
    2.0806   -2.6900   28.2714 C   0  0  0  0  0  0  0  0  0  0  0  0
    1.5779   -3.6323   27.7308 O   0  0  0  0  0  0  0  0  0  0  0  0
    3.1124   -1.9202   27.5255 C   0  0  0  0  0  0  0  0  0  0  0  0
    3.9951   -1.0844   28.0593 N   0  0  0  0  0  0  0  0  0  0  0  0
    4.8158   -0.6889   27.0204 C   0  0  0  0  0  0  0  0  0  0  0  0
    4.4060   -1.2372   25.8350 C   0  0  0  0  0  0  0  0  0  0  0  0
    3.3363   -2.0151   26.1649 N   0  0  0  0  0  0  0  0  0  0  0  0
    0.5896    1.3190   28.7352 N   0  0  0  0  0  0  0  0  0  0  0  0
    0.6148    1.9865   27.5297 O   0  0  0  0  0  0  0  0  0  0  0  0
   -1.7371    2.7503   25.3871 H   0  0  0  0  0  0  0  0  0  0  0  0
   -0.8438    4.1017   26.1061 H   0  0  0  0  0  0  0  0  0  0  0  0
    0.0220    2.8405   25.2122 H   0  0  0  0  0  0  0  0  0  0  0  0
   -2.6082    1.8735   28.0685 H   0  0  0  0  0  0  0  0  0  0  0  0
    0.8749    0.4431   30.5280 H   0  0  0  0  0  0  0  0  0  0  0  0
   -0.7915   -1.1374   32.4323 H   0  0  0  0  0  0  0  0  0  0  0  0
    0.4688   -0.0423   33.0060 H   0  0  0  0  0  0  0  0  0  0  0  0
    2.2341   -1.3376   32.0383 H   0  0  0  0  0  0  0  0  0  0  0  0
    1.1760   -2.4477   32.8869 H   0  0  0  0  0  0  0  0  0  0  0  0
    1.6374   -3.6256   30.9831 H   0  0  0  0  0  0  0  0  0  0  0  0
   -0.3392   -3.8650   29.6681 H   0  0  0  0  0  0  0  0  0  0  0  0
   -0.8738   -3.3669   31.2743 H   0  0  0  0  0  0  0  0  0  0  0  0
   -0.8518   -2.2083   29.9204 H   0  0  0  0  0  0  0  0  0  0  0  0
    2.5609   -1.4012   29.7422 H   0  0  0  0  0  0  0  0  0  0  0  0
    5.6481   -0.0193   27.1881 H   0  0  0  0  0  0  0  0  0  0  0  0
    4.7570   -1.1609   24.8166 H   0  0  0  0  0  0  0  0  0  0  0  0
    2.7479   -2.5266   25.5181 H   0  0  0  0  0  0  0  0  0  0  0  0
  1  2  1  0
  2  3  2  0
  3  4  1  0
  4  5  1  0
  5  6  2  0
  5  7  1  0
  7  8  1  0
  8  9  1  0
  9 10  1  0
 10 11  1  0
 10 12  1  0
 12 13  1  0
 13 14  2  0
 13 15  1  0
 15 16  2  0
 16 17  1  0
 17 18  2  0
 18 19  1  0
  4 20  2  0
 20 21  1  0
 21  2  1  0
 19 15  1  0
  1 22  1  0
  1 23  1  0
  1 24  1  0
  3 25  1  0
  7 26  1  0
  8 27  1  0
  8 28  1  0
  9 29  1  0
  9 30  1  0
 10 31  1  0
 11 32  1  0
 11 33  1  0
 11 34  1  0
 12 35  1  0
 17 36  1  0
 18 37  1  0
 19 38  1  0
M  END
>  <Energy>  (320) 
11.750750469253555

>  <compound_id>  (320) 
54333

>  <target_id>  (320) 
1

>  <reference_id>  (320) 
80

>  <inspiration_ids>  (320) 
[59, 80]

>  <energy_score>  (320) 
-28.905939260481773

>  <distance_score>  (320) 
8.797950986836048

>  <path>  (320) 
/opt/xchem-fragalysis-2/maxwin/BulkDock/SCRATCH/511020/C54333-P80/C54333-P80.minimised.mol

>  <scratch_subdir>  (320) 
/opt/xchem-fragalysis-2/maxwin/BulkDock/SCRATCH/511020/C54333-P80

>  <fragmenstein_runtime>  (320) 
13.757505178451538

>  <fragmenstein_outcome>  (320) 
too moved

>  <fragmenstein_mode>  (320) 
expansion

>  <fragmenstein_error>  (320) 


$$$$
C54334-P59
     RDKit          3D

 42 44  0  0  0  0  0  0  0  0999 V2000
    3.3835    3.5331   23.9911 C   0  0  0  0  0  0  0  0  0  0  0  0
    3.9284    2.7231   25.0325 N   0  0  0  0  0  0  0  0  0  0  0  0
    4.9755    3.0596   26.1270 C   0  0  0  0  0  0  0  0  0  0  0  0
    5.6090    4.0261   26.2965 O   0  0  0  0  0  0  0  0  0  0  0  0
    4.9969    1.8713   27.1186 C   0  0  0  0  0  0  0  0  0  0  0  0
    6.0688    0.8256   26.8074 C   0  0  0  0  0  0  0  0  0  0  0  0
    5.8366   -0.2564   25.8080 C   0  0  0  0  0  0  0  0  0  0  0  0
    6.3905   -1.5193   25.8637 C   0  0  0  0  0  0  0  0  0  0  0  0
    5.6369   -2.2631   24.9989 N   0  0  0  0  0  0  0  0  0  0  0  0
    4.7997   -1.4037   24.3516 C   0  0  0  0  0  0  0  0  0  0  0  0
    4.9489   -0.1639   24.7690 N   0  0  0  0  0  0  0  0  0  0  0  0
    3.5862    1.5674   27.4027 N   0  0  0  0  0  0  0  0  0  0  0  0
    2.9511    0.6995   28.5077 C   0  0  0  0  0  0  0  0  0  0  0  0
    3.4486    0.0269   29.3190 O   0  0  0  0  0  0  0  0  0  0  0  0
    1.4770    0.8787   28.5336 C   0  0  0  0  0  0  0  0  0  0  0  0
    0.7133    1.8503   27.9192 C   0  0  0  0  0  0  0  0  0  0  0  0
   -0.5881    1.7593   28.2662 O   0  0  0  0  0  0  0  0  0  0  0  0
   -0.7448    0.7072   29.1319 N   0  0  0  0  0  0  0  0  0  0  0  0
    0.4738    0.1744   29.2635 C   0  0  0  0  0  0  0  0  0  0  0  0
    0.6920   -1.1420   30.0559 C   0  0  0  0  0  0  0  0  0  0  0  0
   -0.6085   -1.9644   30.2902 C   0  0  0  0  0  0  0  0  0  0  0  0
   -0.3451   -2.6370   28.9267 C   0  0  0  0  0  0  0  0  0  0  0  0
    1.1490   -2.3310   29.1585 C   0  0  0  0  0  0  0  0  0  0  0  0
    4.1875    4.0887   23.5059 H   0  0  0  0  0  0  0  0  0  0  0  0
    2.6925    4.2481   24.4449 H   0  0  0  0  0  0  0  0  0  0  0  0
    2.8408    2.8992   23.2905 H   0  0  0  0  0  0  0  0  0  0  0  0
    3.6263    1.7507   25.1357 H   0  0  0  0  0  0  0  0  0  0  0  0
    5.3247    2.3290   28.0645 H   0  0  0  0  0  0  0  0  0  0  0  0
    6.9915    1.3451   26.5163 H   0  0  0  0  0  0  0  0  0  0  0  0
    6.2985    0.3254   27.7596 H   0  0  0  0  0  0  0  0  0  0  0  0
    7.1380   -1.9699   26.5018 H   0  0  0  0  0  0  0  0  0  0  0  0
    5.8331   -3.2306   24.7701 H   0  0  0  0  0  0  0  0  0  0  0  0
    4.1507   -1.7237   23.5612 H   0  0  0  0  0  0  0  0  0  0  0  0
    2.8644    2.0861   26.9251 H   0  0  0  0  0  0  0  0  0  0  0  0
    0.9254    2.6841   27.2667 H   0  0  0  0  0  0  0  0  0  0  0  0
    1.2950   -0.9860   30.9561 H   0  0  0  0  0  0  0  0  0  0  0  0
   -1.5559   -1.4270   30.3826 H   0  0  0  0  0  0  0  0  0  0  0  0
   -0.5341   -2.6567   31.1388 H   0  0  0  0  0  0  0  0  0  0  0  0
   -0.7897   -2.1132   28.0738 H   0  0  0  0  0  0  0  0  0  0  0  0
   -0.6067   -3.6957   28.8667 H   0  0  0  0  0  0  0  0  0  0  0  0
    1.6794   -3.1157   29.7118 H   0  0  0  0  0  0  0  0  0  0  0  0
    1.7232   -2.0983   28.2580 H   0  0  0  0  0  0  0  0  0  0  0  0
  1  2  1  0
  2  3  1  0
  3  4  2  0
  3  5  1  0
  5  6  1  0
  6  7  1  0
  7  8  2  0
  8  9  1  0
  9 10  1  0
 10 11  2  0
  5 12  1  0
 12 13  1  0
 13 14  2  0
 13 15  1  0
 15 16  2  0
 16 17  1  0
 17 18  1  0
 18 19  2  0
 19 20  1  0
 20 21  1  0
 21 22  1  0
 22 23  1  0
 11  7  1  0
 19 15  1  0
 23 20  1  0
  1 24  1  0
  1 25  1  0
  1 26  1  0
  2 27  1  0
  5 28  1  0
  6 29  1  0
  6 30  1  0
  8 31  1  0
  9 32  1  0
 10 33  1  0
 12 34  1  0
 16 35  1  0
 20 36  1  0
 21 37  1  0
 21 38  1  0
 22 39  1  0
 22 40  1  0
 23 41  1  0
 23 42  1  0
M  END
>  <Energy>  (321) 
36.275692891923285

>  <compound_id>  (321) 
54334

>  <target_id>  (321) 
1

>  <reference_id>  (321) 
59

>  <inspiration_ids>  (321) 
[59, 80]

>  <energy_score>  (321) 
0.39093230007560464

>  <distance_score>  (321) 
10.193070552670246

>  <path>  (321) 
/opt/xchem-fragalysis-2/maxwin/BulkDock/SCRATCH/511020/C54334-P59/C54334-P59.minimised.mol

>  <scratch_subdir>  (321) 
/opt/xchem-fragalysis-2/maxwin/BulkDock/SCRATCH/511020/C54334-P59

>  <fragmenstein_runtime>  (321) 
6.548994302749634

>  <fragmenstein_outcome>  (321) 
too moved

>  <fragmenstein_mode>  (321) 
expansion

>  <fragmenstein_error>  (321) 


$$$$
C54334-P80
     RDKit          3D

 42 44  0  0  0  0  0  0  0  0999 V2000
    6.0035    0.7748   27.9331 C   0  0  0  0  0  0  0  0  0  0  0  0
    5.7258   -0.2190   26.9426 N   0  0  0  0  0  0  0  0  0  0  0  0
    4.7822   -0.2240   25.8350 C   0  0  0  0  0  0  0  0  0  0  0  0
    3.9433    0.5741   25.5211 O   0  0  0  0  0  0  0  0  0  0  0  0
    4.9279   -1.6515   25.0293 C   0  0  0  0  0  0  0  0  0  0  0  0
    4.7940   -1.6850   23.4181 C   0  0  0  0  0  0  0  0  0  0  0  0
    5.6102   -1.8336   21.7464 C   0  0  0  0  0  0  0  0  0  0  0  0
    6.0260   -2.8711   20.8364 C   0  0  0  0  0  0  0  0  0  0  0  0
    7.5211   -2.6772   20.6830 N   0  0  0  0  0  0  0  0  0  0  0  0
    7.6017   -1.3443   20.3187 C   0  0  0  0  0  0  0  0  0  0  0  0
    6.6679   -0.7255   20.9719 N   0  0  0  0  0  0  0  0  0  0  0  0
    3.7080   -2.0559   25.8454 N   0  0  0  0  0  0  0  0  0  0  0  0
    3.5616   -2.3317   27.2613 C   0  0  0  0  0  0  0  0  0  0  0  0
    4.3794   -2.3916   28.1337 O   0  0  0  0  0  0  0  0  0  0  0  0
    2.1709   -2.4605   27.7159 C   0  0  0  0  0  0  0  0  0  0  0  0
    1.6104   -3.5547   28.3322 C   0  0  0  0  0  0  0  0  0  0  0  0
    0.3490   -3.2968   28.7419 O   0  0  0  0  0  0  0  0  0  0  0  0
    0.0757   -1.9636   28.5342 N   0  0  0  0  0  0  0  0  0  0  0  0
    1.1932   -1.4573   27.9961 C   0  0  0  0  0  0  0  0  0  0  0  0
    1.4153    0.0836   27.8676 C   0  0  0  0  0  0  0  0  0  0  0  0
    1.5961    0.8103   29.2217 C   0  0  0  0  0  0  0  0  0  0  0  0
    0.1119    1.2128   29.1660 C   0  0  0  0  0  0  0  0  0  0  0  0
    0.1447    0.9417   27.6526 C   0  0  0  0  0  0  0  0  0  0  0  0
    5.3657    1.6466   27.7710 H   0  0  0  0  0  0  0  0  0  0  0  0
    7.0551    1.0589   27.8546 H   0  0  0  0  0  0  0  0  0  0  0  0
    5.8105    0.3466   28.9191 H   0  0  0  0  0  0  0  0  0  0  0  0
    6.2335   -1.0996   26.9499 H   0  0  0  0  0  0  0  0  0  0  0  0
    5.8625   -2.0594   25.3565 H   0  0  0  0  0  0  0  0  0  0  0  0
    4.8447   -0.6220   23.3987 H   0  0  0  0  0  0  0  0  0  0  0  0
    3.8344   -2.1951   23.3433 H   0  0  0  0  0  0  0  0  0  0  0  0
    5.5259   -3.5452   20.1637 H   0  0  0  0  0  0  0  0  0  0  0  0
    8.1708   -3.4375   20.4969 H   0  0  0  0  0  0  0  0  0  0  0  0
    8.3211   -0.9172   19.6840 H   0  0  0  0  0  0  0  0  0  0  0  0
    2.7802   -2.0028   25.4174 H   0  0  0  0  0  0  0  0  0  0  0  0
    1.9665   -4.5317   28.5891 H   0  0  0  0  0  0  0  0  0  0  0  0
    2.2102    0.3158   27.1597 H   0  0  0  0  0  0  0  0  0  0  0  0
    2.2820    1.6642   29.1643 H   0  0  0  0  0  0  0  0  0  0  0  0
    1.8834    0.1950   30.0792 H   0  0  0  0  0  0  0  0  0  0  0  0
   -0.5521    0.5443   29.7249 H   0  0  0  0  0  0  0  0  0  0  0  0
   -0.1059    2.2444   29.4544 H   0  0  0  0  0  0  0  0  0  0  0  0
    0.3293    1.8422   27.0543 H   0  0  0  0  0  0  0  0  0  0  0  0
   -0.7387    0.4383   27.2501 H   0  0  0  0  0  0  0  0  0  0  0  0
  1  2  1  0
  2  3  1  0
  3  4  2  0
  3  5  1  0
  5  6  1  0
  6  7  1  0
  7  8  2  0
  8  9  1  0
  9 10  1  0
 10 11  2  0
  5 12  1  0
 12 13  1  0
 13 14  2  0
 13 15  1  0
 15 16  2  0
 16 17  1  0
 17 18  1  0
 18 19  2  0
 19 20  1  0
 20 21  1  0
 21 22  1  0
 22 23  1  0
 11  7  1  0
 19 15  1  0
 23 20  1  0
  1 24  1  0
  1 25  1  0
  1 26  1  0
  2 27  1  0
  5 28  1  0
  6 29  1  0
  6 30  1  0
  8 31  1  0
  9 32  1  0
 10 33  1  0
 12 34  1  0
 16 35  1  0
 20 36  1  0
 21 37  1  0
 21 38  1  0
 22 39  1  0
 22 40  1  0
 23 41  1  0
 23 42  1  0
M  END
>  <Energy>  (322) 
203.00076414028268

>  <compound_id>  (322) 
54334

>  <target_id>  (322) 
1

>  <reference_id>  (322) 
80

>  <inspiration_ids>  (322) 
[59, 80]

>  <energy_score>  (322) 
177.84482140037665

>  <distance_score>  (322) 
9.002126225950978

>  <path>  (322) 
/opt/xchem-fragalysis-2/maxwin/BulkDock/SCRATCH/511020/C54334-P80/C54334-P80.minimised.mol

>  <scratch_subdir>  (322) 
/opt/xchem-fragalysis-2/maxwin/BulkDock/SCRATCH/511020/C54334-P80

>  <fragmenstein_runtime>  (322) 
13.540440320968628

>  <fragmenstein_outcome>  (322) 
too moved

>  <fragmenstein_mode>  (322) 
expansion

>  <fragmenstein_error>  (322) 


$$$$
C54335-P59
     RDKit          3D

 41 42  0  0  0  0  0  0  0  0999 V2000
    3.3538   -4.1655   30.8677 C   0  0  0  0  0  0  0  0  0  0  0  0
    3.3406   -3.1478   29.8688 O   0  0  0  0  0  0  0  0  0  0  0  0
    4.0906   -3.4374   28.7617 C   0  0  0  0  0  0  0  0  0  0  0  0
    4.7145   -4.4844   28.6189 O   0  0  0  0  0  0  0  0  0  0  0  0
    4.0737   -2.3757   27.7568 C   0  0  0  0  0  0  0  0  0  0  0  0
    4.7688   -2.3613   26.5165 C   0  0  0  0  0  0  0  0  0  0  0  0
    4.4227   -1.1714   25.9234 C   0  0  0  0  0  0  0  0  0  0  0  0
    4.7519   -0.4564   24.6498 C   0  0  0  0  0  0  0  0  0  0  0  0
    4.7164   -1.7876   23.1658 S   0  0  0  0  0  0  0  0  0  0  0  0
    5.5624   -2.9445   23.3311 O   0  0  0  0  0  0  0  0  0  0  0  0
    3.3574   -2.2970   23.1128 O   0  0  0  0  0  0  0  0  0  0  0  0
    5.3075   -0.6890   21.2726 N   0  0  0  0  0  0  0  0  0  0  0  0
    6.7285    0.0469   19.8887 C   0  0  0  0  0  0  0  0  0  0  0  0
    7.1669   -0.0272   18.0950 C   0  0  0  0  0  0  0  0  0  0  0  0
    6.6028   -0.6214   17.0031 N   0  0  0  0  0  0  0  0  0  0  0  0
    7.5344   -0.6598   15.9332 C   0  0  0  0  0  0  0  0  0  0  0  0
    8.6229    0.0875   16.2196 C   0  0  0  0  0  0  0  0  0  0  0  0
    8.3578    0.5690   17.4685 N   0  0  0  0  0  0  0  0  0  0  0  0
    7.9536    1.5568   19.9964 C   0  0  0  0  0  0  0  0  0  0  0  0
    7.7753    2.8290   19.0541 C   0  0  0  0  0  0  0  0  0  0  0  0
    9.3861    1.7938   20.8694 C   0  0  0  0  0  0  0  0  0  0  0  0
    3.5858   -0.4974   26.7687 O   0  0  0  0  0  0  0  0  0  0  0  0
    3.3615   -1.2451   27.9072 N   0  0  0  0  0  0  0  0  0  0  0  0
    2.7354   -3.8279   31.7040 H   0  0  0  0  0  0  0  0  0  0  0  0
    2.9269   -5.0938   30.4753 H   0  0  0  0  0  0  0  0  0  0  0  0
    4.3714   -4.3307   31.2353 H   0  0  0  0  0  0  0  0  0  0  0  0
    5.4246   -3.1276   26.1203 H   0  0  0  0  0  0  0  0  0  0  0  0
    5.6932    0.0594   24.7907 H   0  0  0  0  0  0  0  0  0  0  0  0
    4.0069    0.3194   24.4995 H   0  0  0  0  0  0  0  0  0  0  0  0
    4.5883    0.0731   21.3942 H   0  0  0  0  0  0  0  0  0  0  0  0
    7.3635   -0.8206   20.0192 H   0  0  0  0  0  0  0  0  0  0  0  0
    7.3541   -1.2810   15.0647 H   0  0  0  0  0  0  0  0  0  0  0  0
    9.5101    0.3482   15.6600 H   0  0  0  0  0  0  0  0  0  0  0  0
    8.9477    1.2951   17.8344 H   0  0  0  0  0  0  0  0  0  0  0  0
    8.6030    0.9282   19.4358 H   0  0  0  0  0  0  0  0  0  0  0  0
    7.1948    3.6332   19.5042 H   0  0  0  0  0  0  0  0  0  0  0  0
    8.7517    3.2702   18.8191 H   0  0  0  0  0  0  0  0  0  0  0  0
    7.3053    2.6519   18.0957 H   0  0  0  0  0  0  0  0  0  0  0  0
    9.7205    0.8638   21.2872 H   0  0  0  0  0  0  0  0  0  0  0  0
    9.5890    2.4659   21.7173 H   0  0  0  0  0  0  0  0  0  0  0  0
   10.0670    2.3555   20.2140 H   0  0  0  0  0  0  0  0  0  0  0  0
  1  2  1  0
  2  3  1  0
  3  4  2  0
  3  5  1  0
  5  6  1  0
  6  7  2  0
  7  8  1  0
  8  9  1  0
  9 10  2  0
  9 11  2  0
  9 12  1  0
 12 13  1  0
 13 14  1  0
 14 15  2  0
 15 16  1  0
 16 17  2  0
 17 18  1  0
 13 19  1  0
 19 20  1  0
 19 21  1  0
  7 22  1  0
 22 23  1  0
 23  5  2  0
 18 14  1  0
  1 24  1  0
  1 25  1  0
  1 26  1  0
  6 27  1  0
  8 28  1  0
  8 29  1  0
 12 30  1  0
 13 31  1  0
 16 32  1  0
 17 33  1  0
 18 34  1  0
 19 35  1  0
 20 36  1  0
 20 37  1  0
 20 38  1  0
 21 39  1  0
 21 40  1  0
 21 41  1  0
M  END
>  <Energy>  (323) 
451.17175024179153

>  <compound_id>  (323) 
54335

>  <target_id>  (323) 
1

>  <reference_id>  (323) 
59

>  <inspiration_ids>  (323) 
[59, 80]

>  <energy_score>  (323) 
431.2006606330136

>  <distance_score>  (323) 
6.6133088307512296

>  <path>  (323) 
/opt/xchem-fragalysis-2/maxwin/BulkDock/SCRATCH/511020/C54335-P59/C54335-P59.minimised.mol

>  <scratch_subdir>  (323) 
/opt/xchem-fragalysis-2/maxwin/BulkDock/SCRATCH/511020/C54335-P59

>  <fragmenstein_runtime>  (323) 
5.753400087356567

>  <fragmenstein_outcome>  (323) 
too moved

>  <fragmenstein_mode>  (323) 
expansion

>  <fragmenstein_error>  (323) 


$$$$
C54335-P80
     RDKit          3D

 41 42  0  0  0  0  0  0  0  0999 V2000
    3.5220   -2.2573   30.2901 C   0  0  0  0  0  0  0  0  0  0  0  0
    3.2037   -1.2660   29.3155 O   0  0  0  0  0  0  0  0  0  0  0  0
    3.8978   -1.3915   28.1427 C   0  0  0  0  0  0  0  0  0  0  0  0
    4.7434   -2.2594   27.9426 O   0  0  0  0  0  0  0  0  0  0  0  0
    3.5559   -0.3684   27.1575 C   0  0  0  0  0  0  0  0  0  0  0  0
    3.8645   -0.3747   25.7720 C   0  0  0  0  0  0  0  0  0  0  0  0
    3.3979    0.8279   25.2907 C   0  0  0  0  0  0  0  0  0  0  0  0
    3.3622    1.5993   23.9381 C   0  0  0  0  0  0  0  0  0  0  0  0
    4.5021    0.6574   22.1667 S   0  0  0  0  0  0  0  0  0  0  0  0
    3.2920    1.2565   21.4661 O   0  0  0  0  0  0  0  0  0  0  0  0
    4.7652   -0.7895   22.1679 O   0  0  0  0  0  0  0  0  0  0  0  0
    6.3926    1.7288   21.8831 N   0  0  0  0  0  0  0  0  0  0  0  0
    7.5729    2.0067   20.8229 C   0  0  0  0  0  0  0  0  0  0  0  0
    7.5218    2.1956   18.8280 C   0  0  0  0  0  0  0  0  0  0  0  0
    8.3313    1.6412   17.8535 N   0  0  0  0  0  0  0  0  0  0  0  0
    8.3699    2.3982   16.7158 C   0  0  0  0  0  0  0  0  0  0  0  0
    7.6137    3.5148   16.8788 C   0  0  0  0  0  0  0  0  0  0  0  0
    7.0982    3.4335   18.1431 N   0  0  0  0  0  0  0  0  0  0  0  0
    8.8919    2.7316   22.0567 C   0  0  0  0  0  0  0  0  0  0  0  0
   10.4605    2.8545   22.1969 C   0  0  0  0  0  0  0  0  0  0  0  0
    8.4224    4.1359   22.6006 C   0  0  0  0  0  0  0  0  0  0  0  0
    2.8365    1.5149   26.3325 O   0  0  0  0  0  0  0  0  0  0  0  0
    2.9117    0.7653   27.4891 N   0  0  0  0  0  0  0  0  0  0  0  0
    2.9033   -2.0755   31.1733 H   0  0  0  0  0  0  0  0  0  0  0  0
    3.2947   -3.2582   29.9096 H   0  0  0  0  0  0  0  0  0  0  0  0
    4.5738   -2.1829   30.5836 H   0  0  0  0  0  0  0  0  0  0  0  0
    4.3528   -1.1523   25.2006 H   0  0  0  0  0  0  0  0  0  0  0  0
    2.3567    1.7605   23.6395 H   0  0  0  0  0  0  0  0  0  0  0  0
    3.5285    2.6951   24.0065 H   0  0  0  0  0  0  0  0  0  0  0  0
    6.2825    2.7617   22.1376 H   0  0  0  0  0  0  0  0  0  0  0  0
    7.1013    3.0405   20.7981 H   0  0  0  0  0  0  0  0  0  0  0  0
    8.9532    2.0942   15.8598 H   0  0  0  0  0  0  0  0  0  0  0  0
    7.3963    4.3475   16.2264 H   0  0  0  0  0  0  0  0  0  0  0  0
    6.5788    4.1733   18.5893 H   0  0  0  0  0  0  0  0  0  0  0  0
    8.9020    1.9290   22.7971 H   0  0  0  0  0  0  0  0  0  0  0  0
   11.0345    1.9760   21.8967 H   0  0  0  0  0  0  0  0  0  0  0  0
   10.8679    3.7600   21.7371 H   0  0  0  0  0  0  0  0  0  0  0  0
   10.7009    2.9721   23.2652 H   0  0  0  0  0  0  0  0  0  0  0  0
    7.3439    4.3013   22.5826 H   0  0  0  0  0  0  0  0  0  0  0  0
    8.8677    4.9464   22.0127 H   0  0  0  0  0  0  0  0  0  0  0  0
    8.7504    4.2667   23.6385 H   0  0  0  0  0  0  0  0  0  0  0  0
  1  2  1  0
  2  3  1  0
  3  4  2  0
  3  5  1  0
  5  6  1  0
  6  7  2  0
  7  8  1  0
  8  9  1  0
  9 10  2  0
  9 11  2  0
  9 12  1  0
 12 13  1  0
 13 14  1  0
 14 15  2  0
 15 16  1  0
 16 17  2  0
 17 18  1  0
 13 19  1  0
 19 20  1  0
 19 21  1  0
  7 22  1  0
 22 23  1  0
 23  5  2  0
 18 14  1  0
  1 24  1  0
  1 25  1  0
  1 26  1  0
  6 27  1  0
  8 28  1  0
  8 29  1  0
 12 30  1  0
 13 31  1  0
 16 32  1  0
 17 33  1  0
 18 34  1  0
 19 35  1  0
 20 36  1  0
 20 37  1  0
 20 38  1  0
 21 39  1  0
 21 40  1  0
 21 41  1  0
M  END
>  <Energy>  (324) 
374.95055863601414

>  <compound_id>  (324) 
54335

>  <target_id>  (324) 
1

>  <reference_id>  (324) 
80

>  <inspiration_ids>  (324) 
[59, 80]

>  <energy_score>  (324) 
354.97946902722924

>  <distance_score>  (324) 
7.220396639309351

>  <path>  (324) 
/opt/xchem-fragalysis-2/maxwin/BulkDock/SCRATCH/511020/C54335-P80/C54335-P80.minimised.mol

>  <scratch_subdir>  (324) 
/opt/xchem-fragalysis-2/maxwin/BulkDock/SCRATCH/511020/C54335-P80

>  <fragmenstein_runtime>  (324) 
9.773107051849365

>  <fragmenstein_outcome>  (324) 
too moved

>  <fragmenstein_mode>  (324) 
expansion

>  <fragmenstein_error>  (324) 


$$$$
C54336-P59
     RDKit          3D

 29 30  0  0  0  0  0  0  0  0999 V2000
    2.2954   -2.4937   27.7902 O   0  0  0  0  0  0  0  0  0  0  0  0
    1.4269   -2.0008   28.3817 C   0  0  0  0  0  0  0  0  0  0  0  0
    1.0716   -0.5393   28.5733 N   0  0  0  0  0  0  0  0  0  0  0  0
    1.6501    0.6490   28.0019 C   0  0  0  0  0  0  0  0  0  0  0  0
    1.0291    1.5988   29.2875 C   0  0  0  0  0  0  0  0  0  0  0  0
   -0.2549    1.1406   29.8977 O   0  0  0  0  0  0  0  0  0  0  0  0
    3.2622    0.6958   27.6821 C   0  0  0  0  0  0  0  0  0  0  0  0
    3.9729    0.5503   26.1844 C   0  0  0  0  0  0  0  0  0  0  0  0
    4.5197   -0.5507   25.5301 C   0  0  0  0  0  0  0  0  0  0  0  0
    4.8716   -0.0832   24.2994 N   0  0  0  0  0  0  0  0  0  0  0  0
    4.8134    1.2721   24.3090 C   0  0  0  0  0  0  0  0  0  0  0  0
    4.3083    1.6909   25.4372 N   0  0  0  0  0  0  0  0  0  0  0  0
    0.4263   -2.6707   29.2378 C   0  0  0  0  0  0  0  0  0  0  0  0
   -0.6743   -1.9714   29.6293 N   0  0  0  0  0  0  0  0  0  0  0  0
   -1.2581   -2.6840   30.6364 O   0  0  0  0  0  0  0  0  0  0  0  0
   -0.5563   -3.8199   30.8205 C   0  0  0  0  0  0  0  0  0  0  0  0
    0.4929   -3.8790   29.9418 C   0  0  0  0  0  0  0  0  0  0  0  0
    1.6945   -5.0684   29.8645 Cl  0  0  0  0  0  0  0  0  0  0  0  0
    0.1878   -0.4678   29.0888 H   0  0  0  0  0  0  0  0  0  0  0  0
    1.0786    0.8964   27.1028 H   0  0  0  0  0  0  0  0  0  0  0  0
    1.7689    1.5826   30.0954 H   0  0  0  0  0  0  0  0  0  0  0  0
    0.9032    2.6284   28.9386 H   0  0  0  0  0  0  0  0  0  0  0  0
   -0.9267    1.2922   29.2065 H   0  0  0  0  0  0  0  0  0  0  0  0
    3.6047    1.6835   28.0197 H   0  0  0  0  0  0  0  0  0  0  0  0
    3.7599   -0.0527   28.3113 H   0  0  0  0  0  0  0  0  0  0  0  0
    4.5387   -1.6012   25.7841 H   0  0  0  0  0  0  0  0  0  0  0  0
    4.8000   -0.6218   23.4496 H   0  0  0  0  0  0  0  0  0  0  0  0
    5.0060    1.8936   23.4571 H   0  0  0  0  0  0  0  0  0  0  0  0
   -0.9015   -4.4648   31.6133 H   0  0  0  0  0  0  0  0  0  0  0  0
  1  2  2  0
  2  3  1  0
  3  4  1  0
  4  5  1  0
  5  6  1  0
  4  7  1  0
  7  8  1  0
  8  9  2  0
  9 10  1  0
 10 11  1  0
 11 12  2  0
  2 13  1  0
 13 14  2  0
 14 15  1  0
 15 16  1  0
 16 17  2  0
 17 18  1  0
 12  8  1  0
 17 13  1  0
  3 19  1  0
  4 20  1  0
  5 21  1  0
  5 22  1  0
  6 23  1  0
  7 24  1  0
  7 25  1  0
  9 26  1  0
 10 27  1  0
 11 28  1  0
 16 29  1  0
M  END
>  <Energy>  (325) 
94.751473426739324

>  <compound_id>  (325) 
54336

>  <target_id>  (325) 
1

>  <reference_id>  (325) 
59

>  <inspiration_ids>  (325) 
[59, 80]

>  <energy_score>  (325) 
40.7006504542091

>  <distance_score>  (325) 
8.66801852237428

>  <path>  (325) 
/opt/xchem-fragalysis-2/maxwin/BulkDock/SCRATCH/511020/C54336-P59/C54336-P59.minimised.mol

>  <scratch_subdir>  (325) 
/opt/xchem-fragalysis-2/maxwin/BulkDock/SCRATCH/511020/C54336-P59

>  <fragmenstein_runtime>  (325) 
3.9554128646850586

>  <fragmenstein_outcome>  (325) 
too moved

>  <fragmenstein_mode>  (325) 
expansion

>  <fragmenstein_error>  (325) 


$$$$
C54336-P80
     RDKit          3D

 29 30  0  0  0  0  0  0  0  0999 V2000
    6.2230    0.0977   27.2840 O   0  0  0  0  0  0  0  0  0  0  0  0
    5.3053    0.8540   27.1651 C   0  0  0  0  0  0  0  0  0  0  0  0
    4.3148    0.9690   26.1367 N   0  0  0  0  0  0  0  0  0  0  0  0
    4.0458    0.1325   24.9514 C   0  0  0  0  0  0  0  0  0  0  0  0
    3.6907   -1.2663   25.5841 C   0  0  0  0  0  0  0  0  0  0  0  0
    2.6436   -1.1654   26.5863 O   0  0  0  0  0  0  0  0  0  0  0  0
    4.9536   -0.1115   23.3540 C   0  0  0  0  0  0  0  0  0  0  0  0
    5.7525    0.8441   21.6946 C   0  0  0  0  0  0  0  0  0  0  0  0
    6.7420    1.9944   21.3134 C   0  0  0  0  0  0  0  0  0  0  0  0
    6.9451    1.9157   19.9518 N   0  0  0  0  0  0  0  0  0  0  0  0
    6.9034    0.6204   19.6789 C   0  0  0  0  0  0  0  0  0  0  0  0
    6.4940    0.0117   20.7460 N   0  0  0  0  0  0  0  0  0  0  0  0
    4.9936    1.8133   28.2606 C   0  0  0  0  0  0  0  0  0  0  0  0
    5.1128    1.4183   29.5464 N   0  0  0  0  0  0  0  0  0  0  0  0
    4.5268    2.4000   30.3178 O   0  0  0  0  0  0  0  0  0  0  0  0
    4.0830    3.3946   29.5189 C   0  0  0  0  0  0  0  0  0  0  0  0
    4.3611    3.0875   28.2150 C   0  0  0  0  0  0  0  0  0  0  0  0
    3.9813    4.0212   26.8509 Cl  0  0  0  0  0  0  0  0  0  0  0  0
    3.6390    1.6706   26.4067 H   0  0  0  0  0  0  0  0  0  0  0  0
    3.1222    0.6679   24.7129 H   0  0  0  0  0  0  0  0  0  0  0  0
    4.5672   -1.6854   26.0863 H   0  0  0  0  0  0  0  0  0  0  0  0
    3.3984   -1.9771   24.8095 H   0  0  0  0  0  0  0  0  0  0  0  0
    2.0679   -1.9277   26.3769 H   0  0  0  0  0  0  0  0  0  0  0  0
    4.6833   -1.0636   22.7914 H   0  0  0  0  0  0  0  0  0  0  0  0
    5.5585   -0.8572   23.9197 H   0  0  0  0  0  0  0  0  0  0  0  0
    6.8568    2.9985   21.7094 H   0  0  0  0  0  0  0  0  0  0  0  0
    7.0395    2.6781   19.2985 H   0  0  0  0  0  0  0  0  0  0  0  0
    7.1007    0.1525   18.7238 H   0  0  0  0  0  0  0  0  0  0  0  0
    3.6078    4.2249   30.0185 H   0  0  0  0  0  0  0  0  0  0  0  0
  1  2  2  0
  2  3  1  0
  3  4  1  0
  4  5  1  0
  5  6  1  0
  4  7  1  0
  7  8  1  0
  8  9  2  0
  9 10  1  0
 10 11  1  0
 11 12  2  0
  2 13  1  0
 13 14  2  0
 14 15  1  0
 15 16  1  0
 16 17  2  0
 17 18  1  0
 12  8  1  0
 17 13  1  0
  3 19  1  0
  4 20  1  0
  5 21  1  0
  5 22  1  0
  6 23  1  0
  7 24  1  0
  7 25  1  0
  9 26  1  0
 10 27  1  0
 11 28  1  0
 16 29  1  0
M  END
>  <Energy>  (326) 
281.09751407695791

>  <compound_id>  (326) 
54336

>  <target_id>  (326) 
1

>  <reference_id>  (326) 
80

>  <inspiration_ids>  (326) 
[59, 80]

>  <energy_score>  (326) 
209.2631696272402

>  <distance_score>  (326) 
9.345590914620583

>  <path>  (326) 
/opt/xchem-fragalysis-2/maxwin/BulkDock/SCRATCH/511020/C54336-P80/C54336-P80.minimised.mol

>  <scratch_subdir>  (326) 
/opt/xchem-fragalysis-2/maxwin/BulkDock/SCRATCH/511020/C54336-P80

>  <fragmenstein_runtime>  (326) 
5.961146593093872

>  <fragmenstein_outcome>  (326) 
too moved

>  <fragmenstein_mode>  (326) 
expansion

>  <fragmenstein_error>  (326) 


$$$$
C54337-P59
     RDKit          3D

 41 42  0  0  0  0  0  0  0  0999 V2000
    2.9539   -1.4695   28.9316 C   0  0  0  0  0  0  0  0  0  0  0  0
    3.9330   -0.5535   28.1482 C   0  0  0  0  0  0  0  0  0  0  0  0
    5.3084   -0.5971   28.8405 C   0  0  0  0  0  0  0  0  0  0  0  0
    3.4341    0.9233   28.1750 C   0  0  0  0  0  0  0  0  0  0  0  0
    2.0080    1.0683   28.0190 N   0  0  0  0  0  0  0  0  0  0  0  0
    1.2426    1.9266   27.1821 C   0  0  0  0  0  0  0  0  0  0  0  0
    1.5822    2.6947   26.3343 O   0  0  0  0  0  0  0  0  0  0  0  0
   -0.1935    1.7206   27.4577 C   0  0  0  0  0  0  0  0  0  0  0  0
   -0.5941    0.8803   28.4407 N   0  0  0  0  0  0  0  0  0  0  0  0
   -1.9745    0.8961   28.4104 O   0  0  0  0  0  0  0  0  0  0  0  0
   -2.3915    1.7382   27.4384 C   0  0  0  0  0  0  0  0  0  0  0  0
   -1.3133    2.2851   26.8036 C   0  0  0  0  0  0  0  0  0  0  0  0
   -1.3546    3.3777   25.5102 Cl  0  0  0  0  0  0  0  0  0  0  0  0
    4.1160   -1.0849   26.7864 N   0  0  0  0  0  0  0  0  0  0  0  0
    4.6863   -0.4778   25.5964 C   0  0  0  0  0  0  0  0  0  0  0  0
    5.0789    0.6347   25.4014 O   0  0  0  0  0  0  0  0  0  0  0  0
    4.8541   -1.5757   24.4941 C   0  0  0  0  0  0  0  0  0  0  0  0
    4.6856   -1.1847   22.9468 C   0  0  0  0  0  0  0  0  0  0  0  0
    5.3285   -0.6233   21.2574 C   0  0  0  0  0  0  0  0  0  0  0  0
    5.2302    0.8095   20.5730 N   0  0  0  0  0  0  0  0  0  0  0  0
    6.2516    1.1915   19.5809 C   0  0  0  0  0  0  0  0  0  0  0  0
    7.1338    0.1753   19.3636 C   0  0  0  0  0  0  0  0  0  0  0  0
    6.7476   -0.9579   20.3495 N   0  0  0  0  0  0  0  0  0  0  0  0
    3.3758   -2.4753   29.0456 H   0  0  0  0  0  0  0  0  0  0  0  0
    2.0034   -1.5908   28.4003 H   0  0  0  0  0  0  0  0  0  0  0  0
    2.7532   -1.0751   29.9335 H   0  0  0  0  0  0  0  0  0  0  0  0
    6.0284    0.0537   28.3308 H   0  0  0  0  0  0  0  0  0  0  0  0
    5.2415   -0.2734   29.8851 H   0  0  0  0  0  0  0  0  0  0  0  0
    5.7240   -1.6116   28.8307 H   0  0  0  0  0  0  0  0  0  0  0  0
    3.9347    1.5477   27.4302 H   0  0  0  0  0  0  0  0  0  0  0  0
    3.6505    1.3637   29.1558 H   0  0  0  0  0  0  0  0  0  0  0  0
    1.3748    0.4921   28.5687 H   0  0  0  0  0  0  0  0  0  0  0  0
   -3.4577    1.8502   27.3248 H   0  0  0  0  0  0  0  0  0  0  0  0
    3.9727   -2.0712   26.6178 H   0  0  0  0  0  0  0  0  0  0  0  0
    5.7841   -2.0869   24.7500 H   0  0  0  0  0  0  0  0  0  0  0  0
    4.1410   -2.3710   24.6869 H   0  0  0  0  0  0  0  0  0  0  0  0
    5.0290   -0.1981   23.2602 H   0  0  0  0  0  0  0  0  0  0  0  0
    5.0353   -2.1657   22.7177 H   0  0  0  0  0  0  0  0  0  0  0  0
    6.1977    2.1707   19.1299 H   0  0  0  0  0  0  0  0  0  0  0  0
    7.9971    0.0403   18.7464 H   0  0  0  0  0  0  0  0  0  0  0  0
    6.4217   -1.7541   19.8583 H   0  0  0  0  0  0  0  0  0  0  0  0
  1  2  1  0
  2  3  1  0
  2  4  1  0
  4  5  1  0
  5  6  1  0
  6  7  2  0
  6  8  1  0
  8  9  2  0
  9 10  1  0
 10 11  1  0
 11 12  2  0
 12 13  1  0
  2 14  1  0
 14 15  1  0
 15 16  2  0
 15 17  1  0
 17 18  1  0
 18 19  1  0
 19 20  2  0
 20 21  1  0
 21 22  2  0
 22 23  1  0
 12  8  1  0
 23 19  1  0
  1 24  1  0
  1 25  1  0
  1 26  1  0
  3 27  1  0
  3 28  1  0
  3 29  1  0
  4 30  1  0
  4 31  1  0
  5 32  1  0
 11 33  1  0
 14 34  1  0
 17 35  1  0
 17 36  1  0
 18 37  1  0
 18 38  1  0
 21 39  1  0
 22 40  1  0
 23 41  1  0
M  END
>  <Energy>  (327) 
238.23026764157396

>  <compound_id>  (327) 
54337

>  <target_id>  (327) 
1

>  <reference_id>  (327) 
59

>  <inspiration_ids>  (327) 
[59, 80]

>  <energy_score>  (327) 
197.16783924648462

>  <distance_score>  (327) 
8.282459306279124

>  <path>  (327) 
/opt/xchem-fragalysis-2/maxwin/BulkDock/SCRATCH/511020/C54337-P59/C54337-P59.minimised.mol

>  <scratch_subdir>  (327) 
/opt/xchem-fragalysis-2/maxwin/BulkDock/SCRATCH/511020/C54337-P59

>  <fragmenstein_runtime>  (327) 
16.831340789794922

>  <fragmenstein_outcome>  (327) 
too moved

>  <fragmenstein_mode>  (327) 
expansion

>  <fragmenstein_error>  (327) 


$$$$
C54337-P80
     RDKit          3D

 41 42  0  0  0  0  0  0  0  0999 V2000
    0.4544    2.4531   30.8387 C   0  0  0  0  0  0  0  0  0  0  0  0
    0.6857    3.0310   29.3758 C   0  0  0  0  0  0  0  0  0  0  0  0
    0.7961    4.5589   29.4645 C   0  0  0  0  0  0  0  0  0  0  0  0
   -0.5158    2.6556   28.4355 C   0  0  0  0  0  0  0  0  0  0  0  0
   -0.9084    1.3400   28.8248 N   0  0  0  0  0  0  0  0  0  0  0  0
   -0.4322   -0.0237   28.3324 C   0  0  0  0  0  0  0  0  0  0  0  0
    0.3004   -0.3008   27.4763 O   0  0  0  0  0  0  0  0  0  0  0  0
   -1.0127   -1.0136   29.2437 C   0  0  0  0  0  0  0  0  0  0  0  0
   -1.8466   -0.5987   30.2283 N   0  0  0  0  0  0  0  0  0  0  0  0
   -1.9601   -1.6544   31.0958 O   0  0  0  0  0  0  0  0  0  0  0  0
   -1.2364   -2.6928   30.6296 C   0  0  0  0  0  0  0  0  0  0  0  0
   -0.6389   -2.3575   29.4475 C   0  0  0  0  0  0  0  0  0  0  0  0
    0.4384   -3.3181   28.5683 Cl  0  0  0  0  0  0  0  0  0  0  0  0
    1.9191    2.5438   28.7060 N   0  0  0  0  0  0  0  0  0  0  0  0
    2.6857    1.1900   28.8529 C   0  0  0  0  0  0  0  0  0  0  0  0
    2.5032    0.2917   29.5786 O   0  0  0  0  0  0  0  0  0  0  0  0
    3.7456    1.2041   27.7147 C   0  0  0  0  0  0  0  0  0  0  0  0
    4.6135   -0.0604   27.6369 C   0  0  0  0  0  0  0  0  0  0  0  0
    4.9381   -0.6001   26.2596 C   0  0  0  0  0  0  0  0  0  0  0  0
    5.9362   -1.3971   25.9660 N   0  0  0  0  0  0  0  0  0  0  0  0
    5.5078   -2.0303   24.8416 C   0  0  0  0  0  0  0  0  0  0  0  0
    4.2635   -1.7359   24.4959 C   0  0  0  0  0  0  0  0  0  0  0  0
    4.0522   -0.6188   25.2250 N   0  0  0  0  0  0  0  0  0  0  0  0
    0.4585    1.3607   30.8714 H   0  0  0  0  0  0  0  0  0  0  0  0
   -0.4579    2.8268   31.2949 H   0  0  0  0  0  0  0  0  0  0  0  0
    1.2879    2.7724   31.4766 H   0  0  0  0  0  0  0  0  0  0  0  0
    1.6887    4.8548   30.0278 H   0  0  0  0  0  0  0  0  0  0  0  0
    0.8733    5.0113   28.4691 H   0  0  0  0  0  0  0  0  0  0  0  0
   -0.0718    4.9921   29.9663 H   0  0  0  0  0  0  0  0  0  0  0  0
   -1.3682    3.3272   28.5405 H   0  0  0  0  0  0  0  0  0  0  0  0
   -0.2105    2.6402   27.3836 H   0  0  0  0  0  0  0  0  0  0  0  0
   -1.4886    1.2181   29.6519 H   0  0  0  0  0  0  0  0  0  0  0  0
   -1.2172   -3.5717   31.2552 H   0  0  0  0  0  0  0  0  0  0  0  0
    2.3951    3.1318   28.0312 H   0  0  0  0  0  0  0  0  0  0  0  0
    3.1978    1.3667   26.7801 H   0  0  0  0  0  0  0  0  0  0  0  0
    4.3971    2.0730   27.8685 H   0  0  0  0  0  0  0  0  0  0  0  0
    4.1395   -0.8858   28.1824 H   0  0  0  0  0  0  0  0  0  0  0  0
    5.5611    0.1356   28.1546 H   0  0  0  0  0  0  0  0  0  0  0  0
    6.0173   -2.8603   24.4467 H   0  0  0  0  0  0  0  0  0  0  0  0
    3.5455   -2.2011   23.8455 H   0  0  0  0  0  0  0  0  0  0  0  0
    3.1990   -0.0985   25.1686 H   0  0  0  0  0  0  0  0  0  0  0  0
  1  2  1  0
  2  3  1  0
  2  4  1  0
  4  5  1  0
  5  6  1  0
  6  7  2  0
  6  8  1  0
  8  9  2  0
  9 10  1  0
 10 11  1  0
 11 12  2  0
 12 13  1  0
  2 14  1  0
 14 15  1  0
 15 16  2  0
 15 17  1  0
 17 18  1  0
 18 19  1  0
 19 20  2  0
 20 21  1  0
 21 22  2  0
 22 23  1  0
 12  8  1  0
 23 19  1  0
  1 24  1  0
  1 25  1  0
  1 26  1  0
  3 27  1  0
  3 28  1  0
  3 29  1  0
  4 30  1  0
  4 31  1  0
  5 32  1  0
 11 33  1  0
 14 34  1  0
 17 35  1  0
 17 36  1  0
 18 37  1  0
 18 38  1  0
 21 39  1  0
 22 40  1  0
 23 41  1  0
M  END
>  <Energy>  (328) 
50.813814528759281

>  <compound_id>  (328) 
54337

>  <target_id>  (328) 
1

>  <reference_id>  (328) 
80

>  <inspiration_ids>  (328) 
[59, 80]

>  <energy_score>  (328) 
6.2427178362557925

>  <distance_score>  (328) 
8.611292598458043

>  <path>  (328) 
/opt/xchem-fragalysis-2/maxwin/BulkDock/SCRATCH/511020/C54337-P80/C54337-P80.minimised.mol

>  <scratch_subdir>  (328) 
/opt/xchem-fragalysis-2/maxwin/BulkDock/SCRATCH/511020/C54337-P80

>  <fragmenstein_runtime>  (328) 
27.851510524749756

>  <fragmenstein_outcome>  (328) 
too moved

>  <fragmenstein_mode>  (328) 
expansion

>  <fragmenstein_error>  (328) 


$$$$
C54340-P59
     RDKit          3D

 38 39  0  0  0  0  0  0  0  0999 V2000
    3.9104    1.3708   27.8361 C   0  0  0  0  0  0  0  0  0  0  0  0
    5.3018    0.6348   28.1457 C   0  0  0  0  0  0  0  0  0  0  0  0
    4.9553   -0.8077   28.6769 C   0  0  0  0  0  0  0  0  0  0  0  0
    3.5491   -0.9755   29.0394 N   0  0  0  0  0  0  0  0  0  0  0  0
    2.8029   -0.6453   30.3581 C   0  0  0  0  0  0  0  0  0  0  0  0
    3.2112   -0.2612   31.3820 O   0  0  0  0  0  0  0  0  0  0  0  0
    1.3260   -0.7758   30.1717 C   0  0  0  0  0  0  0  0  0  0  0  0
    0.4876    0.1079   30.7583 N   0  0  0  0  0  0  0  0  0  0  0  0
   -0.7807   -0.1865   30.3023 O   0  0  0  0  0  0  0  0  0  0  0  0
   -0.7294   -1.2696   29.4948 C   0  0  0  0  0  0  0  0  0  0  0  0
    0.5649   -1.7054   29.4106 C   0  0  0  0  0  0  0  0  0  0  0  0
    1.1369   -3.0648   28.5782 Cl  0  0  0  0  0  0  0  0  0  0  0  0
    6.4603    0.5701   27.0947 N   0  0  0  0  0  0  0  0  0  0  0  0
    7.7636    1.4821   26.9318 C   0  0  0  0  0  0  0  0  0  0  0  0
    8.0958    2.4507   27.5201 O   0  0  0  0  0  0  0  0  0  0  0  0
    8.8331    0.8718   25.8288 C   0  0  0  0  0  0  0  0  0  0  0  0
    9.7728    1.9512   25.0994 C   0  0  0  0  0  0  0  0  0  0  0  0
   10.6524    1.7178   23.7540 C   0  0  0  0  0  0  0  0  0  0  0  0
   10.5356    2.4144   22.6179 N   0  0  0  0  0  0  0  0  0  0  0  0
   11.7468    2.3708   21.9850 C   0  0  0  0  0  0  0  0  0  0  0  0
   12.5775    1.4793   22.6154 C   0  0  0  0  0  0  0  0  0  0  0  0
   11.8596    1.0423   23.7051 N   0  0  0  0  0  0  0  0  0  0  0  0
    3.3349    0.8127   27.0907 H   0  0  0  0  0  0  0  0  0  0  0  0
    3.3218    1.5349   28.7418 H   0  0  0  0  0  0  0  0  0  0  0  0
    4.1340    2.3524   27.4044 H   0  0  0  0  0  0  0  0  0  0  0  0
    5.7480    1.2031   28.9719 H   0  0  0  0  0  0  0  0  0  0  0  0
    5.1704   -1.5589   27.9101 H   0  0  0  0  0  0  0  0  0  0  0  0
    5.5647   -1.0264   29.5597 H   0  0  0  0  0  0  0  0  0  0  0  0
    2.8963   -1.3652   28.3693 H   0  0  0  0  0  0  0  0  0  0  0  0
   -1.6712   -1.6031   29.0832 H   0  0  0  0  0  0  0  0  0  0  0  0
    6.5291   -0.2349   26.4814 H   0  0  0  0  0  0  0  0  0  0  0  0
    8.3250    0.1947   25.1533 H   0  0  0  0  0  0  0  0  0  0  0  0
    9.4979    0.2245   26.4172 H   0  0  0  0  0  0  0  0  0  0  0  0
    9.1464    2.8252   24.8752 H   0  0  0  0  0  0  0  0  0  0  0  0
   10.4950    2.3020   25.8500 H   0  0  0  0  0  0  0  0  0  0  0  0
   11.9399    2.9711   21.1040 H   0  0  0  0  0  0  0  0  0  0  0  0
   13.5828    1.1372   22.4208 H   0  0  0  0  0  0  0  0  0  0  0  0
   12.1881    0.3895   24.4015 H   0  0  0  0  0  0  0  0  0  0  0  0
  1  2  1  0
  2  3  1  0
  3  4  1  0
  4  5  1  0
  5  6  2  0
  5  7  1  0
  7  8  2  0
  8  9  1  0
  9 10  1  0
 10 11  2  0
 11 12  1  0
  2 13  1  0
 13 14  1  0
 14 15  2  0
 14 16  1  0
 16 17  1  0
 17 18  1  0
 18 19  2  0
 19 20  1  0
 20 21  2  0
 21 22  1  0
 11  7  1  0
 22 18  1  0
  1 23  1  0
  1 24  1  0
  1 25  1  0
  2 26  1  0
  3 27  1  0
  3 28  1  0
  4 29  1  0
 10 30  1  0
 13 31  1  0
 16 32  1  0
 16 33  1  0
 17 34  1  0
 17 35  1  0
 20 36  1  0
 21 37  1  0
 22 38  1  0
M  END
>  <Energy>  (329) 
80.051857892882055

>  <compound_id>  (329) 
54340

>  <target_id>  (329) 
1

>  <reference_id>  (329) 
59

>  <inspiration_ids>  (329) 
[59, 80]

>  <energy_score>  (329) 
54.012620187599055

>  <distance_score>  (329) 
8.586025359161596

>  <path>  (329) 
/opt/xchem-fragalysis-2/maxwin/BulkDock/SCRATCH/511020/C54340-P59/C54340-P59.minimised.mol

>  <scratch_subdir>  (329) 
/opt/xchem-fragalysis-2/maxwin/BulkDock/SCRATCH/511020/C54340-P59

>  <fragmenstein_runtime>  (329) 
11.615475416183472

>  <fragmenstein_outcome>  (329) 
too moved

>  <fragmenstein_mode>  (329) 
expansion

>  <fragmenstein_error>  (329) 


$$$$
C54340-P80
     RDKit          3D

 38 39  0  0  0  0  0  0  0  0999 V2000
    2.6136   -2.6439   27.8485 C   0  0  0  0  0  0  0  0  0  0  0  0
    2.8274   -1.2524   27.2824 C   0  0  0  0  0  0  0  0  0  0  0  0
    3.1985   -0.2440   28.3970 C   0  0  0  0  0  0  0  0  0  0  0  0
    2.0778   -0.0656   29.3017 N   0  0  0  0  0  0  0  0  0  0  0  0
    1.6902   -0.7928   30.4686 C   0  0  0  0  0  0  0  0  0  0  0  0
    2.2327   -1.6862   31.0464 O   0  0  0  0  0  0  0  0  0  0  0  0
    0.3427   -0.3699   30.9130 C   0  0  0  0  0  0  0  0  0  0  0  0
   -0.2914    0.6672   30.3246 N   0  0  0  0  0  0  0  0  0  0  0  0
   -1.5351    0.7438   30.9178 O   0  0  0  0  0  0  0  0  0  0  0  0
   -1.6536   -0.2316   31.8449 C   0  0  0  0  0  0  0  0  0  0  0  0
   -0.5014   -0.9687   31.8854 C   0  0  0  0  0  0  0  0  0  0  0  0
   -0.2059   -2.3159   32.8680 Cl  0  0  0  0  0  0  0  0  0  0  0  0
    3.6942   -1.1655   26.1090 N   0  0  0  0  0  0  0  0  0  0  0  0
    4.0003   -0.0589   25.2455 C   0  0  0  0  0  0  0  0  0  0  0  0
    3.6841    1.0952   25.3164 O   0  0  0  0  0  0  0  0  0  0  0  0
    4.8918   -0.5711   23.8916 C   0  0  0  0  0  0  0  0  0  0  0  0
    5.0149    0.5611   22.2479 C   0  0  0  0  0  0  0  0  0  0  0  0
    6.6153    1.7462   21.8160 C   0  0  0  0  0  0  0  0  0  0  0  0
    6.4994    3.2045   21.8442 N   0  0  0  0  0  0  0  0  0  0  0  0
    7.7044    3.8601   21.8775 C   0  0  0  0  0  0  0  0  0  0  0  0
    8.6214    2.8570   21.9173 C   0  0  0  0  0  0  0  0  0  0  0  0
    7.8748    1.7597   21.2974 N   0  0  0  0  0  0  0  0  0  0  0  0
    2.3812   -3.3433   27.0486 H   0  0  0  0  0  0  0  0  0  0  0  0
    3.5107   -2.9884   28.3689 H   0  0  0  0  0  0  0  0  0  0  0  0
    1.7740   -2.6831   28.5469 H   0  0  0  0  0  0  0  0  0  0  0  0
    1.8517   -0.9282   26.9064 H   0  0  0  0  0  0  0  0  0  0  0  0
    3.4338    0.7417   27.9856 H   0  0  0  0  0  0  0  0  0  0  0  0
    4.0614   -0.6009   28.9689 H   0  0  0  0  0  0  0  0  0  0  0  0
    1.3269    0.5739   29.0449 H   0  0  0  0  0  0  0  0  0  0  0  0
   -2.5934   -0.2733   32.3733 H   0  0  0  0  0  0  0  0  0  0  0  0
    4.0611   -2.0181   25.6953 H   0  0  0  0  0  0  0  0  0  0  0  0
    5.6893   -1.1938   24.2581 H   0  0  0  0  0  0  0  0  0  0  0  0
    4.4089   -1.5102   23.5356 H   0  0  0  0  0  0  0  0  0  0  0  0
    4.0363    1.0477   22.0908 H   0  0  0  0  0  0  0  0  0  0  0  0
    5.1413   -0.1318   21.4712 H   0  0  0  0  0  0  0  0  0  0  0  0
    7.7878    4.9238   22.0520 H   0  0  0  0  0  0  0  0  0  0  0  0
    9.6730    2.7779   22.1716 H   0  0  0  0  0  0  0  0  0  0  0  0
    7.7652    1.7515   20.3120 H   0  0  0  0  0  0  0  0  0  0  0  0
  1  2  1  0
  2  3  1  0
  3  4  1  0
  4  5  1  0
  5  6  2  0
  5  7  1  0
  7  8  2  0
  8  9  1  0
  9 10  1  0
 10 11  2  0
 11 12  1  0
  2 13  1  0
 13 14  1  0
 14 15  2  0
 14 16  1  0
 16 17  1  0
 17 18  1  0
 18 19  2  0
 19 20  1  0
 20 21  2  0
 21 22  1  0
 11  7  1  0
 22 18  1  0
  1 23  1  0
  1 24  1  0
  1 25  1  0
  2 26  1  0
  3 27  1  0
  3 28  1  0
  4 29  1  0
 10 30  1  0
 13 31  1  0
 16 32  1  0
 16 33  1  0
 17 34  1  0
 17 35  1  0
 20 36  1  0
 21 37  1  0
 22 38  1  0
M  END
>  <Energy>  (330) 
208.77448536305261

>  <compound_id>  (330) 
54340

>  <target_id>  (330) 
1

>  <reference_id>  (330) 
80

>  <inspiration_ids>  (330) 
[59, 80]

>  <energy_score>  (330) 
189.4930337570371

>  <distance_score>  (330) 
8.233810441582914

>  <path>  (330) 
/opt/xchem-fragalysis-2/maxwin/BulkDock/SCRATCH/511020/C54340-P80/C54340-P80.minimised.mol

>  <scratch_subdir>  (330) 
/opt/xchem-fragalysis-2/maxwin/BulkDock/SCRATCH/511020/C54340-P80

>  <fragmenstein_runtime>  (330) 
15.84756326675415

>  <fragmenstein_outcome>  (330) 
too moved

>  <fragmenstein_mode>  (330) 
expansion

>  <fragmenstein_error>  (330) 


$$$$
C54341-P59
     RDKit          3D

 41 42  0  0  0  0  0  0  0  0999 V2000
    6.3403   -0.2171   26.4660 C   0  0  0  0  0  0  0  0  0  0  0  0
    6.1822    1.0726   27.2851 C   0  0  0  0  0  0  0  0  0  0  0  0
    5.9227    2.2726   26.3618 C   0  0  0  0  0  0  0  0  0  0  0  0
    7.4879    1.3194   28.1063 C   0  0  0  0  0  0  0  0  0  0  0  0
    8.7225    1.3761   27.3206 N   0  0  0  0  0  0  0  0  0  0  0  0
    9.3944    2.4875   26.6954 C   0  0  0  0  0  0  0  0  0  0  0  0
    9.0735    3.6358   26.5921 O   0  0  0  0  0  0  0  0  0  0  0  0
   10.7557    2.0548   26.1161 C   0  0  0  0  0  0  0  0  0  0  0  0
   10.6590    1.2071   24.8464 C   0  0  0  0  0  0  0  0  0  0  0  0
   11.3992    1.7947   23.6741 C   0  0  0  0  0  0  0  0  0  0  0  0
   10.9621    2.7054   22.8262 N   0  0  0  0  0  0  0  0  0  0  0  0
   12.0053    2.9623   21.9726 C   0  0  0  0  0  0  0  0  0  0  0  0
   13.0861    2.1698   22.2774 C   0  0  0  0  0  0  0  0  0  0  0  0
   12.6697    1.3953   23.3248 N   0  0  0  0  0  0  0  0  0  0  0  0
    4.9975    0.9072   28.1502 N   0  0  0  0  0  0  0  0  0  0  0  0
    3.6065    0.7393   27.8222 C   0  0  0  0  0  0  0  0  0  0  0  0
    3.0460    0.7695   26.7682 O   0  0  0  0  0  0  0  0  0  0  0  0
    2.7876    0.4770   29.0310 C   0  0  0  0  0  0  0  0  0  0  0  0
    3.3541    0.3424   30.2492 N   0  0  0  0  0  0  0  0  0  0  0  0
    2.3149    0.0987   31.1297 O   0  0  0  0  0  0  0  0  0  0  0  0
    1.1427    0.0824   30.4564 C   0  0  0  0  0  0  0  0  0  0  0  0
    1.3744    0.3163   29.1288 C   0  0  0  0  0  0  0  0  0  0  0  0
    0.2005    0.3984   27.9114 Cl  0  0  0  0  0  0  0  0  0  0  0  0
    5.4704   -0.3936   25.8235 H   0  0  0  0  0  0  0  0  0  0  0  0
    7.2279   -0.1866   25.8288 H   0  0  0  0  0  0  0  0  0  0  0  0
    6.4377   -1.0882   27.1247 H   0  0  0  0  0  0  0  0  0  0  0  0
    5.0767    2.0940   25.6893 H   0  0  0  0  0  0  0  0  0  0  0  0
    6.7879    2.5002   25.7398 H   0  0  0  0  0  0  0  0  0  0  0  0
    5.6918    3.1716   26.9453 H   0  0  0  0  0  0  0  0  0  0  0  0
    7.6231    0.5208   28.8448 H   0  0  0  0  0  0  0  0  0  0  0  0
    7.4047    2.2647   28.6554 H   0  0  0  0  0  0  0  0  0  0  0  0
    9.3275    0.5641   27.2892 H   0  0  0  0  0  0  0  0  0  0  0  0
   11.2890    1.4968   26.8965 H   0  0  0  0  0  0  0  0  0  0  0  0
   11.3449    2.9655   25.9478 H   0  0  0  0  0  0  0  0  0  0  0  0
    9.6160    1.0487   24.5724 H   0  0  0  0  0  0  0  0  0  0  0  0
   11.0677    0.2103   25.0564 H   0  0  0  0  0  0  0  0  0  0  0  0
   11.9159    3.6960   21.1810 H   0  0  0  0  0  0  0  0  0  0  0  0
   14.0678    2.0717   21.8386 H   0  0  0  0  0  0  0  0  0  0  0  0
   13.1907    0.6524   23.7693 H   0  0  0  0  0  0  0  0  0  0  0  0
    5.1266    0.7344   29.1451 H   0  0  0  0  0  0  0  0  0  0  0  0
    0.2594   -0.0997   31.0487 H   0  0  0  0  0  0  0  0  0  0  0  0
  1  2  1  0
  2  3  1  0
  2  4  1  0
  4  5  1  0
  5  6  1  0
  6  7  2  0
  6  8  1  0
  8  9  1  0
  9 10  1  0
 10 11  2  0
 11 12  1  0
 12 13  2  0
 13 14  1  0
  2 15  1  0
 15 16  1  0
 16 17  2  0
 16 18  1  0
 18 19  2  0
 19 20  1  0
 20 21  1  0
 21 22  2  0
 22 23  1  0
 14 10  1  0
 22 18  1  0
  1 24  1  0
  1 25  1  0
  1 26  1  0
  3 27  1  0
  3 28  1  0
  3 29  1  0
  4 30  1  0
  4 31  1  0
  5 32  1  0
  8 33  1  0
  8 34  1  0
  9 35  1  0
  9 36  1  0
 12 37  1  0
 13 38  1  0
 14 39  1  0
 15 40  1  0
 21 41  1  0
M  END
>  <Energy>  (331) 
16.472199681746844

>  <compound_id>  (331) 
54341

>  <target_id>  (331) 
1

>  <reference_id>  (331) 
59

>  <inspiration_ids>  (331) 
[59, 80]

>  <energy_score>  (331) 
-20.713160921047745

>  <distance_score>  (331) 
9.82583507863307

>  <path>  (331) 
/opt/xchem-fragalysis-2/maxwin/BulkDock/SCRATCH/511020/C54341-P59/C54341-P59.minimised.mol

>  <scratch_subdir>  (331) 
/opt/xchem-fragalysis-2/maxwin/BulkDock/SCRATCH/511020/C54341-P59

>  <fragmenstein_runtime>  (331) 
15.234989166259766

>  <fragmenstein_outcome>  (331) 
too moved

>  <fragmenstein_mode>  (331) 
expansion

>  <fragmenstein_error>  (331) 


$$$$
C54341-P80
     RDKit          3D

 41 42  0  0  0  0  0  0  0  0999 V2000
    4.7013    0.6521   28.2539 C   0  0  0  0  0  0  0  0  0  0  0  0
    3.6426    0.5057   27.1408 C   0  0  0  0  0  0  0  0  0  0  0  0
    3.3524    1.9054   26.5807 C   0  0  0  0  0  0  0  0  0  0  0  0
    4.1768   -0.5429   26.1056 C   0  0  0  0  0  0  0  0  0  0  0  0
    4.3970   -0.2085   24.7143 N   0  0  0  0  0  0  0  0  0  0  0  0
    4.9086   -0.9956   23.6277 C   0  0  0  0  0  0  0  0  0  0  0  0
    5.3503   -2.0903   23.6222 O   0  0  0  0  0  0  0  0  0  0  0  0
    5.0168   -0.2051   21.7845 C   0  0  0  0  0  0  0  0  0  0  0  0
    6.7198   -0.2231   20.6198 C   0  0  0  0  0  0  0  0  0  0  0  0
    6.8486    0.2040   18.8045 C   0  0  0  0  0  0  0  0  0  0  0  0
    6.4216   -0.4081   17.7123 N   0  0  0  0  0  0  0  0  0  0  0  0
    7.3044   -0.0376   16.7229 C   0  0  0  0  0  0  0  0  0  0  0  0
    7.8891    1.1493   17.0438 C   0  0  0  0  0  0  0  0  0  0  0  0
    7.3218    1.4237   18.2544 N   0  0  0  0  0  0  0  0  0  0  0  0
    2.3977    0.0038   27.7470 N   0  0  0  0  0  0  0  0  0  0  0  0
    1.5973    0.5218   28.8220 C   0  0  0  0  0  0  0  0  0  0  0  0
    1.7792    1.4508   29.5518 O   0  0  0  0  0  0  0  0  0  0  0  0
    0.3575   -0.2641   29.0163 C   0  0  0  0  0  0  0  0  0  0  0  0
   -0.7775    0.3530   29.4072 N   0  0  0  0  0  0  0  0  0  0  0  0
   -1.7439   -0.6250   29.4879 O   0  0  0  0  0  0  0  0  0  0  0  0
   -1.2006   -1.8198   29.1699 C   0  0  0  0  0  0  0  0  0  0  0  0
    0.1258   -1.6585   28.8828 C   0  0  0  0  0  0  0  0  0  0  0  0
    1.2337   -2.8774   28.4888 Cl  0  0  0  0  0  0  0  0  0  0  0  0
    4.4010    1.3889   29.0071 H   0  0  0  0  0  0  0  0  0  0  0  0
    5.6635    0.9768   27.8413 H   0  0  0  0  0  0  0  0  0  0  0  0
    4.8587   -0.2990   28.7761 H   0  0  0  0  0  0  0  0  0  0  0  0
    2.7995    2.5199   27.3011 H   0  0  0  0  0  0  0  0  0  0  0  0
    2.7395    1.8657   25.6755 H   0  0  0  0  0  0  0  0  0  0  0  0
    4.2719    2.4589   26.3764 H   0  0  0  0  0  0  0  0  0  0  0  0
    3.5043   -1.4098   26.0731 H   0  0  0  0  0  0  0  0  0  0  0  0
    5.1262   -0.9686   26.4545 H   0  0  0  0  0  0  0  0  0  0  0  0
    4.0234    0.6479   24.3465 H   0  0  0  0  0  0  0  0  0  0  0  0
    4.3061    0.5781   21.6924 H   0  0  0  0  0  0  0  0  0  0  0  0
    5.0604   -1.2804   21.6977 H   0  0  0  0  0  0  0  0  0  0  0  0
    7.2036   -1.1697   20.6704 H   0  0  0  0  0  0  0  0  0  0  0  0
    7.4213    0.6168   20.8102 H   0  0  0  0  0  0  0  0  0  0  0  0
    7.4231   -0.6424   15.8277 H   0  0  0  0  0  0  0  0  0  0  0  0
    8.5680    1.8150   16.5285 H   0  0  0  0  0  0  0  0  0  0  0  0
    7.4996    2.2657   18.7678 H   0  0  0  0  0  0  0  0  0  0  0  0
    1.9718   -0.8502   27.3984 H   0  0  0  0  0  0  0  0  0  0  0  0
   -1.8677   -2.6648   29.2019 H   0  0  0  0  0  0  0  0  0  0  0  0
  1  2  1  0
  2  3  1  0
  2  4  1  0
  4  5  1  0
  5  6  1  0
  6  7  2  0
  6  8  1  0
  8  9  1  0
  9 10  1  0
 10 11  2  0
 11 12  1  0
 12 13  2  0
 13 14  1  0
  2 15  1  0
 15 16  1  0
 16 17  2  0
 16 18  1  0
 18 19  2  0
 19 20  1  0
 20 21  1  0
 21 22  2  0
 22 23  1  0
 14 10  1  0
 22 18  1  0
  1 24  1  0
  1 25  1  0
  1 26  1  0
  3 27  1  0
  3 28  1  0
  3 29  1  0
  4 30  1  0
  4 31  1  0
  5 32  1  0
  8 33  1  0
  8 34  1  0
  9 35  1  0
  9 36  1  0
 12 37  1  0
 13 38  1  0
 14 39  1  0
 15 40  1  0
 21 41  1  0
M  END
>  <Energy>  (332) 
251.15333812809814

>  <compound_id>  (332) 
54341

>  <target_id>  (332) 
1

>  <reference_id>  (332) 
80

>  <inspiration_ids>  (332) 
[59, 80]

>  <energy_score>  (332) 
213.9679775253033

>  <distance_score>  (332) 
8.202100938973611

>  <path>  (332) 
/opt/xchem-fragalysis-2/maxwin/BulkDock/SCRATCH/511020/C54341-P80/C54341-P80.minimised.mol

>  <scratch_subdir>  (332) 
/opt/xchem-fragalysis-2/maxwin/BulkDock/SCRATCH/511020/C54341-P80

>  <fragmenstein_runtime>  (332) 
14.597707748413086

>  <fragmenstein_outcome>  (332) 
too moved

>  <fragmenstein_mode>  (332) 
expansion

>  <fragmenstein_error>  (332) 


$$$$
C54342-P59
     RDKit          3D

 41 42  0  0  0  0  0  0  0  0999 V2000
   11.3570   -3.4543   27.6544 C   0  0  0  0  0  0  0  0  0  0  0  0
   10.6986   -2.9922   26.3386 C   0  0  0  0  0  0  0  0  0  0  0  0
   11.3430   -1.6519   25.9470 C   0  0  0  0  0  0  0  0  0  0  0  0
   10.9224   -4.1106   25.2493 C   0  0  0  0  0  0  0  0  0  0  0  0
   11.6270   -3.7553   24.0145 N   0  0  0  0  0  0  0  0  0  0  0  0
   12.4680   -4.5499   23.1375 C   0  0  0  0  0  0  0  0  0  0  0  0
   12.8628   -5.6753   23.2435 O   0  0  0  0  0  0  0  0  0  0  0  0
   12.8502   -3.7148   21.9051 C   0  0  0  0  0  0  0  0  0  0  0  0
   13.5728   -4.4886   20.7948 C   0  0  0  0  0  0  0  0  0  0  0  0
   13.8246   -3.6893   19.5462 C   0  0  0  0  0  0  0  0  0  0  0  0
   13.4313   -3.9592   18.2505 C   0  0  0  0  0  0  0  0  0  0  0  0
   13.9987   -2.9917   17.4738 N   0  0  0  0  0  0  0  0  0  0  0  0
   14.7087   -2.1756   18.3035 C   0  0  0  0  0  0  0  0  0  0  0  0
   14.5854   -2.5375   19.5616 N   0  0  0  0  0  0  0  0  0  0  0  0
    9.2598   -2.7408   26.6042 N   0  0  0  0  0  0  0  0  0  0  0  0
    8.2327   -3.5977   27.1561 C   0  0  0  0  0  0  0  0  0  0  0  0
    8.2659   -4.7533   27.4653 O   0  0  0  0  0  0  0  0  0  0  0  0
    6.9219   -2.8698   27.4015 C   0  0  0  0  0  0  0  0  0  0  0  0
    5.8559   -3.5474   27.8962 N   0  0  0  0  0  0  0  0  0  0  0  0
    4.8135   -2.6518   28.0122 O   0  0  0  0  0  0  0  0  0  0  0  0
    5.2261   -1.4316   27.6135 C   0  0  0  0  0  0  0  0  0  0  0  0
    6.5421   -1.5019   27.2369 C   0  0  0  0  0  0  0  0  0  0  0  0
    7.4940   -0.1981   26.7149 Cl  0  0  0  0  0  0  0  0  0  0  0  0
   10.9431   -4.4094   27.9962 H   0  0  0  0  0  0  0  0  0  0  0  0
   12.4382   -3.5841   27.5312 H   0  0  0  0  0  0  0  0  0  0  0  0
   11.1943   -2.7255   28.4571 H   0  0  0  0  0  0  0  0  0  0  0  0
   11.2374   -0.9153   26.7530 H   0  0  0  0  0  0  0  0  0  0  0  0
   12.4130   -1.7615   25.7397 H   0  0  0  0  0  0  0  0  0  0  0  0
   10.8590   -1.2190   25.0673 H   0  0  0  0  0  0  0  0  0  0  0  0
    9.9639   -4.5354   24.9365 H   0  0  0  0  0  0  0  0  0  0  0  0
   11.4808   -4.9526   25.6764 H   0  0  0  0  0  0  0  0  0  0  0  0
   11.5633   -2.8056   23.6447 H   0  0  0  0  0  0  0  0  0  0  0  0
   11.9142   -3.3434   21.4986 H   0  0  0  0  0  0  0  0  0  0  0  0
   13.4576   -2.8641   22.2342 H   0  0  0  0  0  0  0  0  0  0  0  0
   14.5366   -4.8516   21.1729 H   0  0  0  0  0  0  0  0  0  0  0  0
   12.9889   -5.3805   20.5381 H   0  0  0  0  0  0  0  0  0  0  0  0
   12.8545   -4.7640   17.8214 H   0  0  0  0  0  0  0  0  0  0  0  0
   13.9508   -2.9301   16.4665 H   0  0  0  0  0  0  0  0  0  0  0  0
   15.2871   -1.3369   17.9401 H   0  0  0  0  0  0  0  0  0  0  0  0
    8.9036   -1.7962   26.5432 H   0  0  0  0  0  0  0  0  0  0  0  0
    4.4925   -0.6415   27.6665 H   0  0  0  0  0  0  0  0  0  0  0  0
  1  2  1  0
  2  3  1  0
  2  4  1  0
  4  5  1  0
  5  6  1  0
  6  7  2  0
  6  8  1  0
  8  9  1  0
  9 10  1  0
 10 11  2  0
 11 12  1  0
 12 13  1  0
 13 14  2  0
  2 15  1  0
 15 16  1  0
 16 17  2  0
 16 18  1  0
 18 19  2  0
 19 20  1  0
 20 21  1  0
 21 22  2  0
 22 23  1  0
 14 10  1  0
 22 18  1  0
  1 24  1  0
  1 25  1  0
  1 26  1  0
  3 27  1  0
  3 28  1  0
  3 29  1  0
  4 30  1  0
  4 31  1  0
  5 32  1  0
  8 33  1  0
  8 34  1  0
  9 35  1  0
  9 36  1  0
 11 37  1  0
 12 38  1  0
 13 39  1  0
 15 40  1  0
 21 41  1  0
M  END
>  <Energy>  (333) 
24.298707396365987

>  <compound_id>  (333) 
54342

>  <target_id>  (333) 
1

>  <reference_id>  (333) 
59

>  <inspiration_ids>  (333) 
[59, 80]

>  <energy_score>  (333) 
-23.12922513326282

>  <distance_score>  (333) 
12.024741950678413

>  <path>  (333) 
/opt/xchem-fragalysis-2/maxwin/BulkDock/SCRATCH/511020/C54342-P59/C54342-P59.minimised.mol

>  <scratch_subdir>  (333) 
/opt/xchem-fragalysis-2/maxwin/BulkDock/SCRATCH/511020/C54342-P59

>  <fragmenstein_runtime>  (333) 
11.172171115875244

>  <fragmenstein_outcome>  (333) 
too moved

>  <fragmenstein_mode>  (333) 
expansion

>  <fragmenstein_error>  (333) 


$$$$
C54342-P80
     RDKit          3D

 41 42  0  0  0  0  0  0  0  0999 V2000
    5.2194   -1.5713   28.2205 C   0  0  0  0  0  0  0  0  0  0  0  0
    4.0272   -0.8653   27.5673 C   0  0  0  0  0  0  0  0  0  0  0  0
    4.4285    0.5710   27.2083 C   0  0  0  0  0  0  0  0  0  0  0  0
    3.5335   -1.6455   26.3262 C   0  0  0  0  0  0  0  0  0  0  0  0
    4.2645   -1.5772   25.0894 N   0  0  0  0  0  0  0  0  0  0  0  0
    3.9774   -2.1428   23.7845 C   0  0  0  0  0  0  0  0  0  0  0  0
    3.1023   -2.8718   23.4303 O   0  0  0  0  0  0  0  0  0  0  0  0
    5.1851   -1.7074   22.5849 C   0  0  0  0  0  0  0  0  0  0  0  0
    6.2073   -1.9169   20.8706 C   0  0  0  0  0  0  0  0  0  0  0  0
    6.6957   -0.5126   19.8585 C   0  0  0  0  0  0  0  0  0  0  0  0
    6.3811   -0.2559   18.5119 C   0  0  0  0  0  0  0  0  0  0  0  0
    6.5226    1.0796   18.2668 N   0  0  0  0  0  0  0  0  0  0  0  0
    6.7294    1.6421   19.4771 C   0  0  0  0  0  0  0  0  0  0  0  0
    6.9491    0.7315   20.4024 N   0  0  0  0  0  0  0  0  0  0  0  0
    2.8973   -0.7863   28.5095 N   0  0  0  0  0  0  0  0  0  0  0  0
    2.1762   -1.8129   29.2002 C   0  0  0  0  0  0  0  0  0  0  0  0
    2.3565   -2.9931   29.2516 O   0  0  0  0  0  0  0  0  0  0  0  0
    0.9800   -1.2358   29.8609 C   0  0  0  0  0  0  0  0  0  0  0  0
    0.7564    0.0978   29.8527 N   0  0  0  0  0  0  0  0  0  0  0  0
   -0.4439    0.2922   30.5071 O   0  0  0  0  0  0  0  0  0  0  0  0
   -0.9372   -0.9015   30.9056 C   0  0  0  0  0  0  0  0  0  0  0  0
   -0.0807   -1.9017   30.5312 C   0  0  0  0  0  0  0  0  0  0  0  0
   -0.2848   -3.5583   30.8181 Cl  0  0  0  0  0  0  0  0  0  0  0  0
    4.9775   -2.6035   28.4935 H   0  0  0  0  0  0  0  0  0  0  0  0
    5.5243   -1.0579   29.1397 H   0  0  0  0  0  0  0  0  0  0  0  0
    6.0835   -1.5958   27.5480 H   0  0  0  0  0  0  0  0  0  0  0  0
    3.6263    1.0818   26.6635 H   0  0  0  0  0  0  0  0  0  0  0  0
    5.3326    0.5955   26.5958 H   0  0  0  0  0  0  0  0  0  0  0  0
    4.6325    1.1594   28.1110 H   0  0  0  0  0  0  0  0  0  0  0  0
    3.3963   -2.7038   26.5642 H   0  0  0  0  0  0  0  0  0  0  0  0
    2.5381   -1.2738   26.0895 H   0  0  0  0  0  0  0  0  0  0  0  0
    5.1275   -1.0711   25.0439 H   0  0  0  0  0  0  0  0  0  0  0  0
    5.7749   -1.6582   23.4920 H   0  0  0  0  0  0  0  0  0  0  0  0
    5.2407   -2.7202   22.3071 H   0  0  0  0  0  0  0  0  0  0  0  0
    5.6105   -2.5887   20.2394 H   0  0  0  0  0  0  0  0  0  0  0  0
    7.1034   -2.5380   20.8885 H   0  0  0  0  0  0  0  0  0  0  0  0
    5.8814   -0.8360   17.7521 H   0  0  0  0  0  0  0  0  0  0  0  0
    6.2445    1.5689   17.4279 H   0  0  0  0  0  0  0  0  0  0  0  0
    6.7037    2.7103   19.6304 H   0  0  0  0  0  0  0  0  0  0  0  0
    2.4070    0.0986   28.6259 H   0  0  0  0  0  0  0  0  0  0  0  0
   -1.8785   -0.8714   31.4319 H   0  0  0  0  0  0  0  0  0  0  0  0
  1  2  1  0
  2  3  1  0
  2  4  1  0
  4  5  1  0
  5  6  1  0
  6  7  2  0
  6  8  1  0
  8  9  1  0
  9 10  1  0
 10 11  2  0
 11 12  1  0
 12 13  1  0
 13 14  2  0
  2 15  1  0
 15 16  1  0
 16 17  2  0
 16 18  1  0
 18 19  2  0
 19 20  1  0
 20 21  1  0
 21 22  2  0
 22 23  1  0
 14 10  1  0
 22 18  1  0
  1 24  1  0
  1 25  1  0
  1 26  1  0
  3 27  1  0
  3 28  1  0
  3 29  1  0
  4 30  1  0
  4 31  1  0
  5 32  1  0
  8 33  1  0
  8 34  1  0
  9 35  1  0
  9 36  1  0
 11 37  1  0
 12 38  1  0
 13 39  1  0
 15 40  1  0
 21 41  1  0
M  END
>  <Energy>  (334) 
191.26795928030737

>  <compound_id>  (334) 
54342

>  <target_id>  (334) 
1

>  <reference_id>  (334) 
80

>  <inspiration_ids>  (334) 
[59, 80]

>  <energy_score>  (334) 
143.84002675068055

>  <distance_score>  (334) 
8.164081548898823

>  <path>  (334) 
/opt/xchem-fragalysis-2/maxwin/BulkDock/SCRATCH/511020/C54342-P80/C54342-P80.minimised.mol

>  <scratch_subdir>  (334) 
/opt/xchem-fragalysis-2/maxwin/BulkDock/SCRATCH/511020/C54342-P80

>  <fragmenstein_runtime>  (334) 
17.1758713722229

>  <fragmenstein_outcome>  (334) 
too moved

>  <fragmenstein_mode>  (334) 
expansion

>  <fragmenstein_error>  (334) 


$$$$
C54343-P59
     RDKit          3D

 44 45  0  0  0  0  0  0  0  0999 V2000
    5.9722    3.3241   26.0578 C   0  0  0  0  0  0  0  0  0  0  0  0
    4.5925    2.8747   25.5146 C   0  0  0  0  0  0  0  0  0  0  0  0
    4.4624    1.3479   25.3112 C   0  0  0  0  0  0  0  0  0  0  0  0
    3.7567    3.9121   24.6780 N   0  0  0  0  0  0  0  0  0  0  0  0
    4.7827    3.5500   23.6056 C   0  0  0  0  0  0  0  0  0  0  0  0
    4.4925    4.1843   22.1946 C   0  0  0  0  0  0  0  0  0  0  0  0
    5.5257    3.8126   21.1978 N   0  0  0  0  0  0  0  0  0  0  0  0
    5.4507    2.9706   20.0208 C   0  0  0  0  0  0  0  0  0  0  0  0
    4.5156    2.4247   19.5103 O   0  0  0  0  0  0  0  0  0  0  0  0
    6.8595    2.8022   19.3627 C   0  0  0  0  0  0  0  0  0  0  0  0
    6.9689    1.5258   18.4848 C   0  0  0  0  0  0  0  0  0  0  0  0
    8.1120    1.4502   17.5092 C   0  0  0  0  0  0  0  0  0  0  0  0
    8.4930    2.3726   16.5572 C   0  0  0  0  0  0  0  0  0  0  0  0
    9.3882    1.7282   15.7486 N   0  0  0  0  0  0  0  0  0  0  0  0
    9.5075    0.4518   16.2087 C   0  0  0  0  0  0  0  0  0  0  0  0
    8.8303    0.2767   17.3247 N   0  0  0  0  0  0  0  0  0  0  0  0
    2.3589    3.6079   24.7742 C   0  0  0  0  0  0  0  0  0  0  0  0
    1.6651    2.9181   24.0837 O   0  0  0  0  0  0  0  0  0  0  0  0
    1.7017    4.1718   25.9957 C   0  0  0  0  0  0  0  0  0  0  0  0
    2.3890    4.7679   26.9927 N   0  0  0  0  0  0  0  0  0  0  0  0
    1.4894    4.9746   28.0219 O   0  0  0  0  0  0  0  0  0  0  0  0
    0.2637    4.5425   27.6513 C   0  0  0  0  0  0  0  0  0  0  0  0
    0.3289    4.0341   26.3824 C   0  0  0  0  0  0  0  0  0  0  0  0
   -0.9675    3.3780   25.5074 Cl  0  0  0  0  0  0  0  0  0  0  0  0
    6.7960    3.0703   25.3856 H   0  0  0  0  0  0  0  0  0  0  0  0
    6.1848    2.8198   27.0079 H   0  0  0  0  0  0  0  0  0  0  0  0
    5.9863    4.4036   26.2420 H   0  0  0  0  0  0  0  0  0  0  0  0
    4.0259    2.9469   26.4557 H   0  0  0  0  0  0  0  0  0  0  0  0
    5.1174    0.9529   24.5338 H   0  0  0  0  0  0  0  0  0  0  0  0
    4.7417    0.8255   26.2342 H   0  0  0  0  0  0  0  0  0  0  0  0
    3.4363    1.0661   25.0797 H   0  0  0  0  0  0  0  0  0  0  0  0
    5.7699    3.9531   23.8468 H   0  0  0  0  0  0  0  0  0  0  0  0
    4.7627    2.4913   23.3401 H   0  0  0  0  0  0  0  0  0  0  0  0
    3.5199    3.8480   21.8210 H   0  0  0  0  0  0  0  0  0  0  0  0
    4.4845    5.2763   22.2666 H   0  0  0  0  0  0  0  0  0  0  0  0
    6.4694    4.1703   21.2892 H   0  0  0  0  0  0  0  0  0  0  0  0
    7.6354    2.7733   20.1352 H   0  0  0  0  0  0  0  0  0  0  0  0
    7.0266    3.6985   18.7539 H   0  0  0  0  0  0  0  0  0  0  0  0
    6.9923    0.6419   19.1292 H   0  0  0  0  0  0  0  0  0  0  0  0
    6.0544    1.4220   17.8860 H   0  0  0  0  0  0  0  0  0  0  0  0
    8.1592    3.3785   16.3452 H   0  0  0  0  0  0  0  0  0  0  0  0
    9.8131    2.0938   14.9076 H   0  0  0  0  0  0  0  0  0  0  0  0
   10.1033   -0.2910   15.6924 H   0  0  0  0  0  0  0  0  0  0  0  0
   -0.5257    4.6701   28.3793 H   0  0  0  0  0  0  0  0  0  0  0  0
  1  2  1  0
  2  3  1  0
  2  4  1  0
  4  5  1  0
  5  6  1  0
  6  7  1  0
  7  8  1  0
  8  9  2  0
  8 10  1  0
 10 11  1  0
 11 12  1  0
 12 13  2  0
 13 14  1  0
 14 15  1  0
 15 16  2  0
  4 17  1  0
 17 18  2  0
 17 19  1  0
 19 20  2  0
 20 21  1  0
 21 22  1  0
 22 23  2  0
 23 24  1  0
 16 12  1  0
 23 19  1  0
  1 25  1  0
  1 26  1  0
  1 27  1  0
  2 28  1  0
  3 29  1  0
  3 30  1  0
  3 31  1  0
  5 32  1  0
  5 33  1  0
  6 34  1  0
  6 35  1  0
  7 36  1  0
 10 37  1  0
 10 38  1  0
 11 39  1  0
 11 40  1  0
 13 41  1  0
 14 42  1  0
 15 43  1  0
 22 44  1  0
M  END
>  <Energy>  (335) 
101.65305815425739

>  <compound_id>  (335) 
54343

>  <target_id>  (335) 
1

>  <reference_id>  (335) 
59

>  <inspiration_ids>  (335) 
[59, 80]

>  <energy_score>  (335) 
54.341433710676824

>  <distance_score>  (335) 
10.70875282161871

>  <path>  (335) 
/opt/xchem-fragalysis-2/maxwin/BulkDock/SCRATCH/511020/C54343-P59/C54343-P59.minimised.mol

>  <scratch_subdir>  (335) 
/opt/xchem-fragalysis-2/maxwin/BulkDock/SCRATCH/511020/C54343-P59

>  <fragmenstein_runtime>  (335) 
17.12733745574951

>  <fragmenstein_outcome>  (335) 
too moved

>  <fragmenstein_mode>  (335) 
expansion

>  <fragmenstein_error>  (335) 


$$$$
C54343-P80
     RDKit          3D

 44 45  0  0  0  0  0  0  0  0999 V2000
    2.7409   -2.4564   29.5627 C   0  0  0  0  0  0  0  0  0  0  0  0
    2.6147   -0.9430   29.2557 C   0  0  0  0  0  0  0  0  0  0  0  0
    3.6053   -0.0472   30.0576 C   0  0  0  0  0  0  0  0  0  0  0  0
    2.1291   -0.4692   27.8566 N   0  0  0  0  0  0  0  0  0  0  0  0
    3.4519   -1.0505   27.4334 C   0  0  0  0  0  0  0  0  0  0  0  0
    3.3341   -2.3507   26.5809 C   0  0  0  0  0  0  0  0  0  0  0  0
    3.7773   -2.2820   25.1957 N   0  0  0  0  0  0  0  0  0  0  0  0
    4.5200   -1.2995   24.5103 C   0  0  0  0  0  0  0  0  0  0  0  0
    4.9055   -0.2411   24.8693 O   0  0  0  0  0  0  0  0  0  0  0  0
    5.0236   -1.8577   22.8826 C   0  0  0  0  0  0  0  0  0  0  0  0
    5.9778   -1.9929   21.1228 C   0  0  0  0  0  0  0  0  0  0  0  0
    6.6796   -0.5990   20.0496 C   0  0  0  0  0  0  0  0  0  0  0  0
    6.4036   -0.3569   18.6815 C   0  0  0  0  0  0  0  0  0  0  0  0
    6.5634    0.9675   18.3855 N   0  0  0  0  0  0  0  0  0  0  0  0
    6.7413    1.5671   19.5775 C   0  0  0  0  0  0  0  0  0  0  0  0
    6.9318    0.6807   20.5285 N   0  0  0  0  0  0  0  0  0  0  0  0
    1.6886    0.8861   27.9262 C   0  0  0  0  0  0  0  0  0  0  0  0
    2.2891    1.9117   27.7526 O   0  0  0  0  0  0  0  0  0  0  0  0
    0.2336    0.9779   28.1577 C   0  0  0  0  0  0  0  0  0  0  0  0
   -0.4632    0.1103   28.9226 N   0  0  0  0  0  0  0  0  0  0  0  0
   -1.7715    0.5583   28.9123 O   0  0  0  0  0  0  0  0  0  0  0  0
   -1.8615    1.6610   28.1365 C   0  0  0  0  0  0  0  0  0  0  0  0
   -0.6323    1.9716   27.6337 C   0  0  0  0  0  0  0  0  0  0  0  0
   -0.2702    3.2514   26.5844 Cl  0  0  0  0  0  0  0  0  0  0  0  0
    2.6077   -2.6310   30.6370 H   0  0  0  0  0  0  0  0  0  0  0  0
    1.9703   -3.0308   29.0388 H   0  0  0  0  0  0  0  0  0  0  0  0
    3.7258   -2.8582   29.3089 H   0  0  0  0  0  0  0  0  0  0  0  0
    1.6988   -0.7363   29.8307 H   0  0  0  0  0  0  0  0  0  0  0  0
    4.6334   -0.0663   29.6878 H   0  0  0  0  0  0  0  0  0  0  0  0
    3.6401   -0.3790   31.1019 H   0  0  0  0  0  0  0  0  0  0  0  0
    3.2803    0.9977   30.0644 H   0  0  0  0  0  0  0  0  0  0  0  0
    4.3538   -1.0825   28.0580 H   0  0  0  0  0  0  0  0  0  0  0  0
    3.7606   -0.2489   26.7574 H   0  0  0  0  0  0  0  0  0  0  0  0
    4.0303   -3.0339   27.0523 H   0  0  0  0  0  0  0  0  0  0  0  0
    2.3450   -2.7941   26.6566 H   0  0  0  0  0  0  0  0  0  0  0  0
    3.5530   -3.0248   24.5570 H   0  0  0  0  0  0  0  0  0  0  0  0
    5.7619   -2.2133   23.5836 H   0  0  0  0  0  0  0  0  0  0  0  0
    4.7602   -0.8842   22.5637 H   0  0  0  0  0  0  0  0  0  0  0  0
    6.6562   -2.8239   21.1006 H   0  0  0  0  0  0  0  0  0  0  0  0
    5.3559   -2.5968   20.4534 H   0  0  0  0  0  0  0  0  0  0  0  0
    5.8764   -0.9308   17.9375 H   0  0  0  0  0  0  0  0  0  0  0  0
    6.2948    1.4275   17.5273 H   0  0  0  0  0  0  0  0  0  0  0  0
    6.7179    2.6387   19.7039 H   0  0  0  0  0  0  0  0  0  0  0  0
   -2.8349    2.1143   28.0406 H   0  0  0  0  0  0  0  0  0  0  0  0
  1  2  1  0
  2  3  1  0
  2  4  1  0
  4  5  1  0
  5  6  1  0
  6  7  1  0
  7  8  1  0
  8  9  2  0
  8 10  1  0
 10 11  1  0
 11 12  1  0
 12 13  2  0
 13 14  1  0
 14 15  1  0
 15 16  2  0
  4 17  1  0
 17 18  2  0
 17 19  1  0
 19 20  2  0
 20 21  1  0
 21 22  1  0
 22 23  2  0
 23 24  1  0
 16 12  1  0
 23 19  1  0
  1 25  1  0
  1 26  1  0
  1 27  1  0
  2 28  1  0
  3 29  1  0
  3 30  1  0
  3 31  1  0
  5 32  1  0
  5 33  1  0
  6 34  1  0
  6 35  1  0
  7 36  1  0
 10 37  1  0
 10 38  1  0
 11 39  1  0
 11 40  1  0
 13 41  1  0
 14 42  1  0
 15 43  1  0
 22 44  1  0
M  END
>  <Energy>  (336) 
317.89778352342654

>  <compound_id>  (336) 
54343

>  <target_id>  (336) 
1

>  <reference_id>  (336) 
80

>  <inspiration_ids>  (336) 
[59, 80]

>  <energy_score>  (336) 
270.5861590798469

>  <distance_score>  (336) 
8.245861564669267

>  <path>  (336) 
/opt/xchem-fragalysis-2/maxwin/BulkDock/SCRATCH/511020/C54343-P80/C54343-P80.minimised.mol

>  <scratch_subdir>  (336) 
/opt/xchem-fragalysis-2/maxwin/BulkDock/SCRATCH/511020/C54343-P80

>  <fragmenstein_runtime>  (336) 
21.708348989486694

>  <fragmenstein_outcome>  (336) 
too moved

>  <fragmenstein_mode>  (336) 
expansion

>  <fragmenstein_error>  (336) 


$$$$
C54344-P59
     RDKit          3D

 41 42  0  0  0  0  0  0  0  0999 V2000
    3.3381    2.8424   25.7193 C   0  0  0  0  0  0  0  0  0  0  0  0
    4.4286    1.8362   25.2022 C   0  0  0  0  0  0  0  0  0  0  0  0
    4.3624    0.3907   25.8515 C   0  0  0  0  0  0  0  0  0  0  0  0
    3.2655    0.1684   26.7787 N   0  0  0  0  0  0  0  0  0  0  0  0
    2.8792   -0.9966   27.5130 C   0  0  0  0  0  0  0  0  0  0  0  0
    3.4049   -2.0646   27.6139 O   0  0  0  0  0  0  0  0  0  0  0  0
    1.5906   -0.7485   28.2085 C   0  0  0  0  0  0  0  0  0  0  0  0
    1.0801    0.5009   28.2922 N   0  0  0  0  0  0  0  0  0  0  0  0
   -0.1318    0.3766   28.9464 O   0  0  0  0  0  0  0  0  0  0  0  0
   -0.3477   -0.9229   29.2527 C   0  0  0  0  0  0  0  0  0  0  0  0
    0.7147   -1.6766   28.8321 C   0  0  0  0  0  0  0  0  0  0  0  0
    0.8985   -3.3505   29.0070 Cl  0  0  0  0  0  0  0  0  0  0  0  0
    5.8581    2.3726   24.7743 N   0  0  0  0  0  0  0  0  0  0  0  0
    5.9211    2.7261   26.2150 C   0  0  0  0  0  0  0  0  0  0  0  0
    6.5632    1.3633   24.0217 C   0  0  0  0  0  0  0  0  0  0  0  0
    7.3121    0.4948   24.3898 O   0  0  0  0  0  0  0  0  0  0  0  0
    6.3385    1.5706   22.4997 C   0  0  0  0  0  0  0  0  0  0  0  0
    7.4489    0.8638   21.6853 C   0  0  0  0  0  0  0  0  0  0  0  0
    7.6497    1.3140   20.2666 C   0  0  0  0  0  0  0  0  0  0  0  0
    8.1380    2.5216   19.8108 C   0  0  0  0  0  0  0  0  0  0  0  0
    8.2870    2.3822   18.4577 N   0  0  0  0  0  0  0  0  0  0  0  0
    7.8671    1.1273   18.1307 C   0  0  0  0  0  0  0  0  0  0  0  0
    7.5063    0.4487   19.1986 N   0  0  0  0  0  0  0  0  0  0  0  0
    3.4434    3.8062   25.2087 H   0  0  0  0  0  0  0  0  0  0  0  0
    3.4004    3.0112   26.7995 H   0  0  0  0  0  0  0  0  0  0  0  0
    2.3327    2.4716   25.4988 H   0  0  0  0  0  0  0  0  0  0  0  0
    4.0312    1.6453   24.1967 H   0  0  0  0  0  0  0  0  0  0  0  0
    4.2619   -0.3597   25.0591 H   0  0  0  0  0  0  0  0  0  0  0  0
    5.2818    0.1111   26.3756 H   0  0  0  0  0  0  0  0  0  0  0  0
    2.6189    0.9232   26.9929 H   0  0  0  0  0  0  0  0  0  0  0  0
   -1.2783   -1.1426   29.7524 H   0  0  0  0  0  0  0  0  0  0  0  0
    5.4300    3.6792   26.4413 H   0  0  0  0  0  0  0  0  0  0  0  0
    6.9855    2.9791   26.3431 H   0  0  0  0  0  0  0  0  0  0  0  0
    5.8012    1.9509   26.9779 H   0  0  0  0  0  0  0  0  0  0  0  0
    5.3601    1.1785   22.2159 H   0  0  0  0  0  0  0  0  0  0  0  0
    6.3497    2.6473   22.2938 H   0  0  0  0  0  0  0  0  0  0  0  0
    8.4008    1.0396   22.2014 H   0  0  0  0  0  0  0  0  0  0  0  0
    7.2695   -0.2183   21.7033 H   0  0  0  0  0  0  0  0  0  0  0  0
    8.4312    3.4257   20.3254 H   0  0  0  0  0  0  0  0  0  0  0  0
    8.6741    3.0696   17.8248 H   0  0  0  0  0  0  0  0  0  0  0  0
    7.8642    0.7631   17.1118 H   0  0  0  0  0  0  0  0  0  0  0  0
  1  2  1  0
  2  3  1  0
  3  4  1  0
  4  5  1  0
  5  6  2  0
  5  7  1  0
  7  8  2  0
  8  9  1  0
  9 10  1  0
 10 11  2  0
 11 12  1  0
  2 13  1  0
 13 14  1  0
 13 15  1  0
 15 16  2  0
 15 17  1  0
 17 18  1  0
 18 19  1  0
 19 20  2  0
 20 21  1  0
 21 22  1  0
 22 23  2  0
 11  7  1  0
 23 19  1  0
  1 24  1  0
  1 25  1  0
  1 26  1  0
  2 27  1  0
  3 28  1  0
  3 29  1  0
  4 30  1  0
 10 31  1  0
 14 32  1  0
 14 33  1  0
 14 34  1  0
 17 35  1  0
 17 36  1  0
 18 37  1  0
 18 38  1  0
 20 39  1  0
 21 40  1  0
 22 41  1  0
M  END
>  <Energy>  (337) 
92.032276076799647

>  <compound_id>  (337) 
54344

>  <target_id>  (337) 
1

>  <reference_id>  (337) 
59

>  <inspiration_ids>  (337) 
[59, 80]

>  <energy_score>  (337) 
51.748337923064696

>  <distance_score>  (337) 
8.793037721876775

>  <path>  (337) 
/opt/xchem-fragalysis-2/maxwin/BulkDock/SCRATCH/511020/C54344-P59/C54344-P59.minimised.mol

>  <scratch_subdir>  (337) 
/opt/xchem-fragalysis-2/maxwin/BulkDock/SCRATCH/511020/C54344-P59

>  <fragmenstein_runtime>  (337) 
10.199341297149658

>  <fragmenstein_outcome>  (337) 
too moved

>  <fragmenstein_mode>  (337) 
expansion

>  <fragmenstein_error>  (337) 


$$$$
C54344-P80
     RDKit          3D

 41 42  0  0  0  0  0  0  0  0999 V2000
    5.1165   -2.1447   28.5157 C   0  0  0  0  0  0  0  0  0  0  0  0
    5.8895   -1.2169   27.5133 C   0  0  0  0  0  0  0  0  0  0  0  0
    5.0517    0.0170   27.0042 C   0  0  0  0  0  0  0  0  0  0  0  0
    3.7189    0.1248   27.5599 N   0  0  0  0  0  0  0  0  0  0  0  0
    3.2620    0.6530   28.8086 C   0  0  0  0  0  0  0  0  0  0  0  0
    3.8549    1.2129   29.6815 O   0  0  0  0  0  0  0  0  0  0  0  0
    1.7999    0.4373   28.9637 C   0  0  0  0  0  0  0  0  0  0  0  0
    1.0756   -0.1381   27.9819 N   0  0  0  0  0  0  0  0  0  0  0  0
   -0.2260   -0.1936   28.4364 O   0  0  0  0  0  0  0  0  0  0  0  0
   -0.2922    0.3370   29.6768 C   0  0  0  0  0  0  0  0  0  0  0  0
    0.9545    0.7506   30.0634 C   0  0  0  0  0  0  0  0  0  0  0  0
    1.3587    1.4734   31.5412 Cl  0  0  0  0  0  0  0  0  0  0  0  0
    7.4703   -1.0062   27.6126 N   0  0  0  0  0  0  0  0  0  0  0  0
    7.0957   -0.4369   28.9291 C   0  0  0  0  0  0  0  0  0  0  0  0
    8.1630   -2.2369   27.2772 C   0  0  0  0  0  0  0  0  0  0  0  0
    8.5266   -3.1474   27.9807 O   0  0  0  0  0  0  0  0  0  0  0  0
    8.5465   -2.2544   25.7657 C   0  0  0  0  0  0  0  0  0  0  0  0
    9.5395   -3.3850   25.4210 C   0  0  0  0  0  0  0  0  0  0  0  0
    9.7765   -3.7049   23.9759 C   0  0  0  0  0  0  0  0  0  0  0  0
   10.9879   -3.9065   23.3424 C   0  0  0  0  0  0  0  0  0  0  0  0
   10.6833   -4.3540   22.0899 N   0  0  0  0  0  0  0  0  0  0  0  0
    9.3237   -4.4244   22.0096 C   0  0  0  0  0  0  0  0  0  0  0  0
    8.7467   -4.0150   23.1147 N   0  0  0  0  0  0  0  0  0  0  0  0
    4.1801   -2.4899   28.0637 H   0  0  0  0  0  0  0  0  0  0  0  0
    5.7148   -3.0289   28.7582 H   0  0  0  0  0  0  0  0  0  0  0  0
    4.8592   -1.6387   29.4513 H   0  0  0  0  0  0  0  0  0  0  0  0
    5.8598   -1.8188   26.6034 H   0  0  0  0  0  0  0  0  0  0  0  0
    5.5684    0.9651   27.1811 H   0  0  0  0  0  0  0  0  0  0  0  0
    4.9157   -0.0739   25.9219 H   0  0  0  0  0  0  0  0  0  0  0  0
    2.9141   -0.2132   27.0271 H   0  0  0  0  0  0  0  0  0  0  0  0
   -1.2693    0.3463   30.1341 H   0  0  0  0  0  0  0  0  0  0  0  0
    6.4086    0.4124   28.9725 H   0  0  0  0  0  0  0  0  0  0  0  0
    8.0431    0.0168   29.2594 H   0  0  0  0  0  0  0  0  0  0  0  0
    6.9477   -1.1999   29.7027 H   0  0  0  0  0  0  0  0  0  0  0  0
    7.6452   -2.3233   25.1539 H   0  0  0  0  0  0  0  0  0  0  0  0
    9.0411   -1.3027   25.5457 H   0  0  0  0  0  0  0  0  0  0  0  0
    9.2124   -4.3175   25.8963 H   0  0  0  0  0  0  0  0  0  0  0  0
   10.5019   -3.1448   25.8933 H   0  0  0  0  0  0  0  0  0  0  0  0
   12.0093   -3.7785   23.6727 H   0  0  0  0  0  0  0  0  0  0  0  0
   11.3247   -4.5303   21.3253 H   0  0  0  0  0  0  0  0  0  0  0  0
    8.8237   -4.7696   21.1192 H   0  0  0  0  0  0  0  0  0  0  0  0
  1  2  1  0
  2  3  1  0
  3  4  1  0
  4  5  1  0
  5  6  2  0
  5  7  1  0
  7  8  2  0
  8  9  1  0
  9 10  1  0
 10 11  2  0
 11 12  1  0
  2 13  1  0
 13 14  1  0
 13 15  1  0
 15 16  2  0
 15 17  1  0
 17 18  1  0
 18 19  1  0
 19 20  2  0
 20 21  1  0
 21 22  1  0
 22 23  2  0
 11  7  1  0
 23 19  1  0
  1 24  1  0
  1 25  1  0
  1 26  1  0
  2 27  1  0
  3 28  1  0
  3 29  1  0
  4 30  1  0
 10 31  1  0
 14 32  1  0
 14 33  1  0
 14 34  1  0
 17 35  1  0
 17 36  1  0
 18 37  1  0
 18 38  1  0
 20 39  1  0
 21 40  1  0
 22 41  1  0
M  END
>  <Energy>  (338) 
89.028624658393653

>  <compound_id>  (338) 
54344

>  <target_id>  (338) 
1

>  <reference_id>  (338) 
80

>  <inspiration_ids>  (338) 
[59, 80]

>  <energy_score>  (338) 
48.744686504661786

>  <distance_score>  (338) 
8.995020936540973

>  <path>  (338) 
/opt/xchem-fragalysis-2/maxwin/BulkDock/SCRATCH/511020/C54344-P80/C54344-P80.minimised.mol

>  <scratch_subdir>  (338) 
/opt/xchem-fragalysis-2/maxwin/BulkDock/SCRATCH/511020/C54344-P80

>  <fragmenstein_runtime>  (338) 
9.496932744979858

>  <fragmenstein_outcome>  (338) 
too moved

>  <fragmenstein_mode>  (338) 
expansion

>  <fragmenstein_error>  (338) 


$$$$
C54345-P59
     RDKit          3D

 38 39  0  0  0  0  0  0  0  0999 V2000
    0.6116    0.4904   27.8188 C   0  0  0  0  0  0  0  0  0  0  0  0
    1.9670    0.5502   28.4938 N   0  0  0  0  0  0  0  0  0  0  0  0
    2.4324    0.6728   27.0647 C   0  0  0  0  0  0  0  0  0  0  0  0
    3.9713    0.8007   26.9302 C   0  0  0  0  0  0  0  0  0  0  0  0
    4.3130    1.0954   25.5428 N   0  0  0  0  0  0  0  0  0  0  0  0
    4.5590    0.2088   24.4099 C   0  0  0  0  0  0  0  0  0  0  0  0
    4.6197   -0.9852   24.3541 O   0  0  0  0  0  0  0  0  0  0  0  0
    4.7056    1.1879   23.0646 C   0  0  0  0  0  0  0  0  0  0  0  0
    4.7768    0.5812   21.1481 C   0  0  0  0  0  0  0  0  0  0  0  0
    6.4656    0.5102   19.9436 C   0  0  0  0  0  0  0  0  0  0  0  0
    7.5162    1.5163   19.9379 N   0  0  0  0  0  0  0  0  0  0  0  0
    8.1673    1.6376   18.7354 C   0  0  0  0  0  0  0  0  0  0  0  0
    7.6352    0.7782   17.8404 C   0  0  0  0  0  0  0  0  0  0  0  0
    6.6161    0.1708   18.5048 N   0  0  0  0  0  0  0  0  0  0  0  0
    2.0965   -0.5184   29.4249 C   0  0  0  0  0  0  0  0  0  0  0  0
    2.5306   -1.6290   29.2825 O   0  0  0  0  0  0  0  0  0  0  0  0
    1.4875   -0.1330   30.7152 C   0  0  0  0  0  0  0  0  0  0  0  0
    0.7485   -1.0258   31.4062 N   0  0  0  0  0  0  0  0  0  0  0  0
    0.2409   -0.3474   32.4950 O   0  0  0  0  0  0  0  0  0  0  0  0
    0.6757    0.9315   32.4699 C   0  0  0  0  0  0  0  0  0  0  0  0
    1.4646    1.1261   31.3692 C   0  0  0  0  0  0  0  0  0  0  0  0
    2.2414    2.5661   30.9284 Cl  0  0  0  0  0  0  0  0  0  0  0  0
    0.4166   -0.4558   27.2954 H   0  0  0  0  0  0  0  0  0  0  0  0
   -0.1215    0.4633   28.6393 H   0  0  0  0  0  0  0  0  0  0  0  0
    0.3081    1.3922   27.2669 H   0  0  0  0  0  0  0  0  0  0  0  0
    2.0583    1.5895   26.5816 H   0  0  0  0  0  0  0  0  0  0  0  0
    2.2223   -0.2443   26.5044 H   0  0  0  0  0  0  0  0  0  0  0  0
    4.3528    1.6164   27.5516 H   0  0  0  0  0  0  0  0  0  0  0  0
    4.4603   -0.1342   27.2216 H   0  0  0  0  0  0  0  0  0  0  0  0
    4.4136    2.0560   25.2395 H   0  0  0  0  0  0  0  0  0  0  0  0
    3.8338    1.8822   23.0819 H   0  0  0  0  0  0  0  0  0  0  0  0
    5.4145    1.8227   23.5243 H   0  0  0  0  0  0  0  0  0  0  0  0
    3.8113    1.0160   21.0291 H   0  0  0  0  0  0  0  0  0  0  0  0
    4.8126   -0.4765   21.5155 H   0  0  0  0  0  0  0  0  0  0  0  0
    8.9543    2.3683   18.5935 H   0  0  0  0  0  0  0  0  0  0  0  0
    7.8325    0.5935   16.7944 H   0  0  0  0  0  0  0  0  0  0  0  0
    5.9390   -0.4682   18.1168 H   0  0  0  0  0  0  0  0  0  0  0  0
    0.3515    1.5570   33.2873 H   0  0  0  0  0  0  0  0  0  0  0  0
  1  2  1  0
  2  3  1  0
  3  4  1  0
  4  5  1  0
  5  6  1  0
  6  7  2  0
  6  8  1  0
  8  9  1  0
  9 10  1  0
 10 11  2  0
 11 12  1  0
 12 13  2  0
 13 14  1  0
  2 15  1  0
 15 16  2  0
 15 17  1  0
 17 18  2  0
 18 19  1  0
 19 20  1  0
 20 21  2  0
 21 22  1  0
 14 10  1  0
 21 17  1  0
  1 23  1  0
  1 24  1  0
  1 25  1  0
  3 26  1  0
  3 27  1  0
  4 28  1  0
  4 29  1  0
  5 30  1  0
  8 31  1  0
  8 32  1  0
  9 33  1  0
  9 34  1  0
 12 35  1  0
 13 36  1  0
 14 37  1  0
 20 38  1  0
M  END
>  <Energy>  (339) 
294.7518147310239

>  <compound_id>  (339) 
54345

>  <target_id>  (339) 
1

>  <reference_id>  (339) 
59

>  <inspiration_ids>  (339) 
[59, 80]

>  <energy_score>  (339) 
264.07448966571917

>  <distance_score>  (339) 
8.166569788592035

>  <path>  (339) 
/opt/xchem-fragalysis-2/maxwin/BulkDock/SCRATCH/511020/C54345-P59/C54345-P59.minimised.mol

>  <scratch_subdir>  (339) 
/opt/xchem-fragalysis-2/maxwin/BulkDock/SCRATCH/511020/C54345-P59

>  <fragmenstein_runtime>  (339) 
8.657072305679321

>  <fragmenstein_outcome>  (339) 
too moved

>  <fragmenstein_mode>  (339) 
expansion

>  <fragmenstein_error>  (339) 


$$$$
C54345-P80
     RDKit          3D

 38 39  0  0  0  0  0  0  0  0999 V2000
    1.7751   -0.4154   30.7020 C   0  0  0  0  0  0  0  0  0  0  0  0
    2.0045   -0.0050   29.2803 N   0  0  0  0  0  0  0  0  0  0  0  0
    3.0905   -1.0690   29.3772 C   0  0  0  0  0  0  0  0  0  0  0  0
    2.7972   -2.3564   28.5723 C   0  0  0  0  0  0  0  0  0  0  0  0
    2.9652   -2.2097   27.1462 N   0  0  0  0  0  0  0  0  0  0  0  0
    4.0877   -1.7495   26.3705 C   0  0  0  0  0  0  0  0  0  0  0  0
    5.1400   -1.2964   26.7146 O   0  0  0  0  0  0  0  0  0  0  0  0
    3.7602   -1.9743   24.8682 C   0  0  0  0  0  0  0  0  0  0  0  0
    4.9081   -1.5586   23.9798 C   0  0  0  0  0  0  0  0  0  0  0  0
    5.0329   -1.3890   22.3550 C   0  0  0  0  0  0  0  0  0  0  0  0
    5.0838   -0.0861   21.6408 N   0  0  0  0  0  0  0  0  0  0  0  0
    6.5944   -0.1282   20.9084 C   0  0  0  0  0  0  0  0  0  0  0  0
    7.0216   -1.3093   20.6842 C   0  0  0  0  0  0  0  0  0  0  0  0
    5.7769   -2.2742   21.2999 N   0  0  0  0  0  0  0  0  0  0  0  0
    0.7698    0.0033   28.5685 C   0  0  0  0  0  0  0  0  0  0  0  0
    0.2280   -0.8621   27.9354 O   0  0  0  0  0  0  0  0  0  0  0  0
    0.1731    1.3588   28.5858 C   0  0  0  0  0  0  0  0  0  0  0  0
    0.6989    2.3611   29.3202 N   0  0  0  0  0  0  0  0  0  0  0  0
   -0.0261    3.4904   29.0100 O   0  0  0  0  0  0  0  0  0  0  0  0
   -1.0099    3.1693   28.1399 C   0  0  0  0  0  0  0  0  0  0  0  0
   -0.9666    1.8276   27.8799 C   0  0  0  0  0  0  0  0  0  0  0  0
   -2.0461    0.9689   26.9050 Cl  0  0  0  0  0  0  0  0  0  0  0  0
    1.4712   -1.4659   30.8412 H   0  0  0  0  0  0  0  0  0  0  0  0
    2.5661   -0.0640   31.3826 H   0  0  0  0  0  0  0  0  0  0  0  0
    0.8899    0.1402   31.0471 H   0  0  0  0  0  0  0  0  0  0  0  0
    3.9212   -0.5580   28.8686 H   0  0  0  0  0  0  0  0  0  0  0  0
    3.5753   -1.3260   30.3382 H   0  0  0  0  0  0  0  0  0  0  0  0
    3.5267   -3.1107   28.8824 H   0  0  0  0  0  0  0  0  0  0  0  0
    1.7990   -2.7561   28.7707 H   0  0  0  0  0  0  0  0  0  0  0  0
    2.2029   -2.4529   26.5150 H   0  0  0  0  0  0  0  0  0  0  0  0
    2.9018   -1.3438   24.7284 H   0  0  0  0  0  0  0  0  0  0  0  0
    3.5098   -3.0184   24.7171 H   0  0  0  0  0  0  0  0  0  0  0  0
    5.0664   -0.5485   24.3354 H   0  0  0  0  0  0  0  0  0  0  0  0
    5.6954   -2.1814   24.3459 H   0  0  0  0  0  0  0  0  0  0  0  0
    7.3305    0.7019   20.7380 H   0  0  0  0  0  0  0  0  0  0  0  0
    7.3841   -1.2099   19.6687 H   0  0  0  0  0  0  0  0  0  0  0  0
    5.3874   -2.7870   20.5308 H   0  0  0  0  0  0  0  0  0  0  0  0
   -1.6561    3.9830   27.8418 H   0  0  0  0  0  0  0  0  0  0  0  0
  1  2  1  0
  2  3  1  0
  3  4  1  0
  4  5  1  0
  5  6  1  0
  6  7  2  0
  6  8  1  0
  8  9  1  0
  9 10  1  0
 10 11  2  0
 11 12  1  0
 12 13  2  0
 13 14  1  0
  2 15  1  0
 15 16  2  0
 15 17  1  0
 17 18  2  0
 18 19  1  0
 19 20  1  0
 20 21  2  0
 21 22  1  0
 14 10  1  0
 21 17  1  0
  1 23  1  0
  1 24  1  0
  1 25  1  0
  3 26  1  0
  3 27  1  0
  4 28  1  0
  4 29  1  0
  5 30  1  0
  8 31  1  0
  8 32  1  0
  9 33  1  0
  9 34  1  0
 12 35  1  0
 13 36  1  0
 14 37  1  0
 20 38  1  0
M  END
>  <Energy>  (340) 
247.18470474053785

>  <compound_id>  (340) 
54345

>  <target_id>  (340) 
1

>  <reference_id>  (340) 
80

>  <inspiration_ids>  (340) 
[59, 80]

>  <energy_score>  (340) 
216.50737967522338

>  <distance_score>  (340) 
7.864126540835035

>  <path>  (340) 
/opt/xchem-fragalysis-2/maxwin/BulkDock/SCRATCH/511020/C54345-P80/C54345-P80.minimised.mol

>  <scratch_subdir>  (340) 
/opt/xchem-fragalysis-2/maxwin/BulkDock/SCRATCH/511020/C54345-P80

>  <fragmenstein_runtime>  (340) 
10.842651605606079

>  <fragmenstein_outcome>  (340) 
too moved

>  <fragmenstein_mode>  (340) 
expansion

>  <fragmenstein_error>  (340) 


$$$$
C54346-P59
     RDKit          3D

 39 40  0  0  0  0  0  0  0  0999 V2000
    0.6144    3.5879   28.2821 C   0  0  0  0  0  0  0  0  0  0  0  0
    2.1214    3.2802   28.2790 C   0  0  0  0  0  0  0  0  0  0  0  0
    2.5515    2.5479   29.5683 C   0  0  0  0  0  0  0  0  0  0  0  0
    1.6479    1.4766   29.9248 N   0  0  0  0  0  0  0  0  0  0  0  0
    1.3024    0.2740   29.2368 C   0  0  0  0  0  0  0  0  0  0  0  0
    1.7302   -0.1960   28.2254 O   0  0  0  0  0  0  0  0  0  0  0  0
    0.1912   -0.4018   29.9446 C   0  0  0  0  0  0  0  0  0  0  0  0
   -0.4819    0.2354   30.9294 N   0  0  0  0  0  0  0  0  0  0  0  0
   -1.4899   -0.6224   31.3205 O   0  0  0  0  0  0  0  0  0  0  0  0
   -1.4055   -1.7687   30.6089 C   0  0  0  0  0  0  0  0  0  0  0  0
   -0.3499   -1.6961   29.7414 C   0  0  0  0  0  0  0  0  0  0  0  0
    0.1803   -2.9135   28.6954 Cl  0  0  0  0  0  0  0  0  0  0  0  0
    2.5000    2.5184   27.0961 N   0  0  0  0  0  0  0  0  0  0  0  0
    3.6454    2.6438   26.2079 C   0  0  0  0  0  0  0  0  0  0  0  0
    4.5255    3.4559   26.1787 O   0  0  0  0  0  0  0  0  0  0  0  0
    3.5384    1.5576   25.1240 C   0  0  0  0  0  0  0  0  0  0  0  0
    5.0884    0.9759   24.4099 S   0  0  0  0  0  0  0  0  0  0  0  0
    4.9088    1.4189   22.4718 C   0  0  0  0  0  0  0  0  0  0  0  0
    6.4623    1.7597   20.9787 C   0  0  0  0  0  0  0  0  0  0  0  0
    6.9371    0.7438   19.8209 N   0  0  0  0  0  0  0  0  0  0  0  0
    7.8898    1.2605   18.9488 C   0  0  0  0  0  0  0  0  0  0  0  0
    8.0068    2.6060   19.0585 C   0  0  0  0  0  0  0  0  0  0  0  0
    7.0156    3.0306   19.9239 N   0  0  0  0  0  0  0  0  0  0  0  0
    0.3266    4.1253   29.1913 H   0  0  0  0  0  0  0  0  0  0  0  0
    0.3609    4.2183   27.4224 H   0  0  0  0  0  0  0  0  0  0  0  0
    0.0056    2.6818   28.1999 H   0  0  0  0  0  0  0  0  0  0  0  0
    2.6810    4.2216   28.2271 H   0  0  0  0  0  0  0  0  0  0  0  0
    2.5583    3.2464   30.4114 H   0  0  0  0  0  0  0  0  0  0  0  0
    3.5535    2.1202   29.4579 H   0  0  0  0  0  0  0  0  0  0  0  0
    1.1328    1.5157   30.8025 H   0  0  0  0  0  0  0  0  0  0  0  0
   -2.1420   -2.5213   30.8397 H   0  0  0  0  0  0  0  0  0  0  0  0
    2.0047    1.6566   26.8806 H   0  0  0  0  0  0  0  0  0  0  0  0
    3.1250    0.6588   25.5862 H   0  0  0  0  0  0  0  0  0  0  0  0
    2.8679    1.9516   24.3582 H   0  0  0  0  0  0  0  0  0  0  0  0
    4.3430    0.8280   21.7344 H   0  0  0  0  0  0  0  0  0  0  0  0
    4.2576    2.2954   22.8076 H   0  0  0  0  0  0  0  0  0  0  0  0
    8.3596    0.6226   18.2179 H   0  0  0  0  0  0  0  0  0  0  0  0
    8.6079    3.3247   18.5205 H   0  0  0  0  0  0  0  0  0  0  0  0
    6.8466    3.9598   20.2933 H   0  0  0  0  0  0  0  0  0  0  0  0
  1  2  1  0
  2  3  1  0
  3  4  1  0
  4  5  1  0
  5  6  2  0
  5  7  1  0
  7  8  2  0
  8  9  1  0
  9 10  1  0
 10 11  2  0
 11 12  1  0
  2 13  1  0
 13 14  1  0
 14 15  2  0
 14 16  1  0
 16 17  1  0
 17 18  1  0
 18 19  1  0
 19 20  2  0
 20 21  1  0
 21 22  2  0
 22 23  1  0
 11  7  1  0
 23 19  1  0
  1 24  1  0
  1 25  1  0
  1 26  1  0
  2 27  1  0
  3 28  1  0
  3 29  1  0
  4 30  1  0
 10 31  1  0
 13 32  1  0
 16 33  1  0
 16 34  1  0
 18 35  1  0
 18 36  1  0
 21 37  1  0
 22 38  1  0
 23 39  1  0
M  END
>  <Energy>  (341) 
298.74415846472863

>  <compound_id>  (341) 
54346

>  <target_id>  (341) 
1

>  <reference_id>  (341) 
59

>  <inspiration_ids>  (341) 
[59, 80]

>  <energy_score>  (341) 
227.77862220760164

>  <distance_score>  (341) 
7.427697371361466

>  <path>  (341) 
/opt/xchem-fragalysis-2/maxwin/BulkDock/SCRATCH/511020/C54346-P59/C54346-P59.minimised.mol

>  <scratch_subdir>  (341) 
/opt/xchem-fragalysis-2/maxwin/BulkDock/SCRATCH/511020/C54346-P59

>  <fragmenstein_runtime>  (341) 
13.674453973770142

>  <fragmenstein_outcome>  (341) 
too moved

>  <fragmenstein_mode>  (341) 
expansion

>  <fragmenstein_error>  (341) 


$$$$
C54346-P80
     RDKit          3D

 39 40  0  0  0  0  0  0  0  0999 V2000
    1.3851    0.8674   29.1705 C   0  0  0  0  0  0  0  0  0  0  0  0
    2.9187    0.7472   29.0937 C   0  0  0  0  0  0  0  0  0  0  0  0
    3.5092   -0.3283   30.0274 C   0  0  0  0  0  0  0  0  0  0  0  0
    2.7684   -1.5423   29.8975 N   0  0  0  0  0  0  0  0  0  0  0  0
    1.6821   -2.0571   30.6542 C   0  0  0  0  0  0  0  0  0  0  0  0
    1.1569   -1.6466   31.6454 O   0  0  0  0  0  0  0  0  0  0  0  0
    1.1334   -3.2218   29.9788 C   0  0  0  0  0  0  0  0  0  0  0  0
    1.8974   -4.2691   29.6346 N   0  0  0  0  0  0  0  0  0  0  0  0
    1.0780   -5.0884   28.8825 O   0  0  0  0  0  0  0  0  0  0  0  0
   -0.1469   -4.5240   28.7760 C   0  0  0  0  0  0  0  0  0  0  0  0
   -0.1767   -3.3492   29.4727 C   0  0  0  0  0  0  0  0  0  0  0  0
   -1.4408   -2.2356   29.6202 Cl  0  0  0  0  0  0  0  0  0  0  0  0
    3.3733    0.6178   27.7109 N   0  0  0  0  0  0  0  0  0  0  0  0
    3.5747   -0.5811   26.8645 C   0  0  0  0  0  0  0  0  0  0  0  0
    3.3393   -1.7333   27.0798 O   0  0  0  0  0  0  0  0  0  0  0  0
    4.2050   -0.0303   25.5746 C   0  0  0  0  0  0  0  0  0  0  0  0
    4.8583   -1.0584   24.2125 S   0  0  0  0  0  0  0  0  0  0  0  0
    4.8698    0.4468   22.3912 C   0  0  0  0  0  0  0  0  0  0  0  0
    6.5990    1.0060   21.6793 C   0  0  0  0  0  0  0  0  0  0  0  0
    7.3303    1.9987   21.1010 N   0  0  0  0  0  0  0  0  0  0  0  0
    7.4446    1.5505   19.5707 C   0  0  0  0  0  0  0  0  0  0  0  0
    7.2964    0.1596   19.4305 C   0  0  0  0  0  0  0  0  0  0  0  0
    7.0387   -0.2859   20.6377 N   0  0  0  0  0  0  0  0  0  0  0  0
    0.8887    0.0054   28.7138 H   0  0  0  0  0  0  0  0  0  0  0  0
    1.0489    0.9688   30.2070 H   0  0  0  0  0  0  0  0  0  0  0  0
    1.0508    1.7534   28.6191 H   0  0  0  0  0  0  0  0  0  0  0  0
    3.3354    1.7085   29.4209 H   0  0  0  0  0  0  0  0  0  0  0  0
    4.5600   -0.5323   29.8007 H   0  0  0  0  0  0  0  0  0  0  0  0
    3.4259    0.0040   31.0677 H   0  0  0  0  0  0  0  0  0  0  0  0
    3.0009   -2.2080   29.1514 H   0  0  0  0  0  0  0  0  0  0  0  0
   -0.8542   -5.0704   28.1756 H   0  0  0  0  0  0  0  0  0  0  0  0
    3.7628    1.4258   27.2417 H   0  0  0  0  0  0  0  0  0  0  0  0
    5.0806    0.4928   25.9714 H   0  0  0  0  0  0  0  0  0  0  0  0
    3.4672    0.6737   25.1802 H   0  0  0  0  0  0  0  0  0  0  0  0
    4.0006    1.1225   22.2660 H   0  0  0  0  0  0  0  0  0  0  0  0
    4.7451   -0.3926   21.7763 H   0  0  0  0  0  0  0  0  0  0  0  0
    7.5500    2.2504   18.7313 H   0  0  0  0  0  0  0  0  0  0  0  0
    7.3216   -0.4210   18.5574 H   0  0  0  0  0  0  0  0  0  0  0  0
    6.5132   -1.1371   20.7616 H   0  0  0  0  0  0  0  0  0  0  0  0
  1  2  1  0
  2  3  1  0
  3  4  1  0
  4  5  1  0
  5  6  2  0
  5  7  1  0
  7  8  2  0
  8  9  1  0
  9 10  1  0
 10 11  2  0
 11 12  1  0
  2 13  1  0
 13 14  1  0
 14 15  2  0
 14 16  1  0
 16 17  1  0
 17 18  1  0
 18 19  1  0
 19 20  2  0
 20 21  1  0
 21 22  2  0
 22 23  1  0
 11  7  1  0
 23 19  1  0
  1 24  1  0
  1 25  1  0
  1 26  1  0
  2 27  1  0
  3 28  1  0
  3 29  1  0
  4 30  1  0
 10 31  1  0
 13 32  1  0
 16 33  1  0
 16 34  1  0
 18 35  1  0
 18 36  1  0
 21 37  1  0
 22 38  1  0
 23 39  1  0
M  END
>  <Energy>  (342) 
229.21902734614653

>  <compound_id>  (342) 
54346

>  <target_id>  (342) 
1

>  <reference_id>  (342) 
80

>  <inspiration_ids>  (342) 
[59, 80]

>  <energy_score>  (342) 
158.253491089014

>  <distance_score>  (342) 
7.581308357730739

>  <path>  (342) 
/opt/xchem-fragalysis-2/maxwin/BulkDock/SCRATCH/511020/C54346-P80/C54346-P80.minimised.mol

>  <scratch_subdir>  (342) 
/opt/xchem-fragalysis-2/maxwin/BulkDock/SCRATCH/511020/C54346-P80

>  <fragmenstein_runtime>  (342) 
8.708802461624146

>  <fragmenstein_outcome>  (342) 
too moved

>  <fragmenstein_mode>  (342) 
expansion

>  <fragmenstein_error>  (342) 


$$$$
C54347-P59
     RDKit          3D

 39 40  0  0  0  0  0  0  0  0999 V2000
    4.4084    4.2511   23.0214 C   0  0  0  0  0  0  0  0  0  0  0  0
    4.1232    2.7538   22.9597 C   0  0  0  0  0  0  0  0  0  0  0  0
    5.3995    1.9919   22.4282 C   0  0  0  0  0  0  0  0  0  0  0  0
    5.6945    1.7922   20.9687 N   0  0  0  0  0  0  0  0  0  0  0  0
    7.0114    2.0715   20.1424 C   0  0  0  0  0  0  0  0  0  0  0  0
    8.0244    2.5696   20.4715 O   0  0  0  0  0  0  0  0  0  0  0  0
    6.9191    1.4497   18.6073 C   0  0  0  0  0  0  0  0  0  0  0  0
    5.9295    0.4338   18.4798 O   0  0  0  0  0  0  0  0  0  0  0  0
    8.3516    0.8989   18.1929 C   0  0  0  0  0  0  0  0  0  0  0  0
    8.8151    0.4905   16.7976 C   0  0  0  0  0  0  0  0  0  0  0  0
    8.2935   -0.3198   15.8130 C   0  0  0  0  0  0  0  0  0  0  0  0
    9.2480   -0.4264   14.8312 N   0  0  0  0  0  0  0  0  0  0  0  0
   10.3231    0.2996   15.2332 C   0  0  0  0  0  0  0  0  0  0  0  0
   10.0936    0.8553   16.3993 N   0  0  0  0  0  0  0  0  0  0  0  0
    3.6135    2.2326   24.2956 N   0  0  0  0  0  0  0  0  0  0  0  0
    2.7398    2.9360   25.4000 C   0  0  0  0  0  0  0  0  0  0  0  0
    2.3542    4.0419   25.4723 O   0  0  0  0  0  0  0  0  0  0  0  0
    2.2332    1.9893   26.5146 C   0  0  0  0  0  0  0  0  0  0  0  0
    1.1363    2.3330   27.2487 N   0  0  0  0  0  0  0  0  0  0  0  0
    0.8494    1.2900   28.1046 O   0  0  0  0  0  0  0  0  0  0  0  0
    1.7577    0.3102   27.9278 C   0  0  0  0  0  0  0  0  0  0  0  0
    2.6649    0.7064   26.9762 C   0  0  0  0  0  0  0  0  0  0  0  0
    4.0357   -0.1501   26.4593 Cl  0  0  0  0  0  0  0  0  0  0  0  0
    3.4969    4.8165   23.2387 H   0  0  0  0  0  0  0  0  0  0  0  0
    4.8000    4.6137   22.0652 H   0  0  0  0  0  0  0  0  0  0  0  0
    5.1396    4.4823   23.8033 H   0  0  0  0  0  0  0  0  0  0  0  0
    3.3003    2.5888   22.2558 H   0  0  0  0  0  0  0  0  0  0  0  0
    6.3004    2.4379   22.8663 H   0  0  0  0  0  0  0  0  0  0  0  0
    5.3378    0.9824   22.8322 H   0  0  0  0  0  0  0  0  0  0  0  0
    5.0391    1.2714   20.3973 H   0  0  0  0  0  0  0  0  0  0  0  0
    6.6549    2.2828   17.9451 H   0  0  0  0  0  0  0  0  0  0  0  0
    5.1066    0.8792   18.2123 H   0  0  0  0  0  0  0  0  0  0  0  0
    9.0219    1.7284   18.4433 H   0  0  0  0  0  0  0  0  0  0  0  0
    8.5097    0.0874   18.8970 H   0  0  0  0  0  0  0  0  0  0  0  0
    7.3408   -0.8135   15.6974 H   0  0  0  0  0  0  0  0  0  0  0  0
    9.1510   -0.9032   13.9361 H   0  0  0  0  0  0  0  0  0  0  0  0
   11.2213    0.3936   14.6388 H   0  0  0  0  0  0  0  0  0  0  0  0
    3.6948    1.2407   24.5061 H   0  0  0  0  0  0  0  0  0  0  0  0
    1.6395   -0.5662   28.5459 H   0  0  0  0  0  0  0  0  0  0  0  0
  1  2  1  0
  2  3  1  0
  3  4  1  0
  4  5  1  0
  5  6  2  0
  5  7  1  0
  7  8  1  0
  7  9  1  0
  9 10  1  0
 10 11  2  0
 11 12  1  0
 12 13  1  0
 13 14  2  0
  2 15  1  0
 15 16  1  0
 16 17  2  0
 16 18  1  0
 18 19  2  0
 19 20  1  0
 20 21  1  0
 21 22  2  0
 22 23  1  0
 14 10  1  0
 22 18  1  0
  1 24  1  0
  1 25  1  0
  1 26  1  0
  2 27  1  0
  3 28  1  0
  3 29  1  0
  4 30  1  0
  7 31  1  0
  8 32  1  0
  9 33  1  0
  9 34  1  0
 11 35  1  0
 12 36  1  0
 13 37  1  0
 15 38  1  0
 21 39  1  0
M  END
>  <Energy>  (343) 
108.57724822020879

>  <compound_id>  (343) 
54347

>  <target_id>  (343) 
1

>  <reference_id>  (343) 
59

>  <inspiration_ids>  (343) 
[59, 80]

>  <energy_score>  (343) 
39.249186053454935

>  <distance_score>  (343) 
10.243700848876424

>  <path>  (343) 
/opt/xchem-fragalysis-2/maxwin/BulkDock/SCRATCH/511020/C54347-P59/C54347-P59.minimised.mol

>  <scratch_subdir>  (343) 
/opt/xchem-fragalysis-2/maxwin/BulkDock/SCRATCH/511020/C54347-P59

>  <fragmenstein_runtime>  (343) 
7.498406648635864

>  <fragmenstein_outcome>  (343) 
too moved

>  <fragmenstein_mode>  (343) 
expansion

>  <fragmenstein_error>  (343) 


$$$$
C54347-P80
     RDKit          3D

 39 40  0  0  0  0  0  0  0  0999 V2000
    2.6801   -2.7443   28.7299 C   0  0  0  0  0  0  0  0  0  0  0  0
    2.3016   -2.3545   27.2819 C   0  0  0  0  0  0  0  0  0  0  0  0
    3.5635   -2.1495   26.4190 C   0  0  0  0  0  0  0  0  0  0  0  0
    3.9403   -2.2233   24.9934 N   0  0  0  0  0  0  0  0  0  0  0  0
    4.7546   -1.2833   24.1357 C   0  0  0  0  0  0  0  0  0  0  0  0
    5.1865   -0.2312   24.4412 O   0  0  0  0  0  0  0  0  0  0  0  0
    5.3935   -1.7769   22.3133 C   0  0  0  0  0  0  0  0  0  0  0  0
    5.8061   -2.2672   23.8855 O   0  0  0  0  0  0  0  0  0  0  0  0
    6.8251   -1.2647   20.7834 C   0  0  0  0  0  0  0  0  0  0  0  0
    8.6288   -1.2451   19.7649 C   0  0  0  0  0  0  0  0  0  0  0  0
    9.8509   -2.6113   20.1849 C   0  0  0  0  0  0  0  0  0  0  0  0
   11.5344   -2.5643   18.8632 N   0  0  0  0  0  0  0  0  0  0  0  0
   11.1306   -1.0683   17.5579 C   0  0  0  0  0  0  0  0  0  0  0  0
    9.5147   -0.2400   18.1790 N   0  0  0  0  0  0  0  0  0  0  0  0
    1.4738   -1.1706   27.4178 N   0  0  0  0  0  0  0  0  0  0  0  0
    1.6970    0.0582   28.1249 C   0  0  0  0  0  0  0  0  0  0  0  0
    2.6562    0.4529   28.7187 O   0  0  0  0  0  0  0  0  0  0  0  0
    0.4884    0.9121   28.1231 C   0  0  0  0  0  0  0  0  0  0  0  0
    0.6057    2.2521   28.0853 N   0  0  0  0  0  0  0  0  0  0  0  0
   -0.6742    2.7577   28.0667 O   0  0  0  0  0  0  0  0  0  0  0  0
   -1.5606    1.7401   28.1258 C   0  0  0  0  0  0  0  0  0  0  0  0
   -0.8852    0.5538   28.2041 C   0  0  0  0  0  0  0  0  0  0  0  0
   -1.5582   -0.9873   28.3849 Cl  0  0  0  0  0  0  0  0  0  0  0  0
    3.0759   -3.7546   28.7942 H   0  0  0  0  0  0  0  0  0  0  0  0
    1.8004   -2.7157   29.3847 H   0  0  0  0  0  0  0  0  0  0  0  0
    3.4291   -2.0641   29.1497 H   0  0  0  0  0  0  0  0  0  0  0  0
    1.6942   -3.1782   26.9351 H   0  0  0  0  0  0  0  0  0  0  0  0
    4.3074   -2.7989   26.8773 H   0  0  0  0  0  0  0  0  0  0  0  0
    3.9294   -1.1485   26.6907 H   0  0  0  0  0  0  0  0  0  0  0  0
    3.6494   -2.9980   24.4326 H   0  0  0  0  0  0  0  0  0  0  0  0
    4.7455   -0.9326   22.2272 H   0  0  0  0  0  0  0  0  0  0  0  0
    6.2921   -3.0780   24.1293 H   0  0  0  0  0  0  0  0  0  0  0  0
    6.5345   -0.2628   20.4250 H   0  0  0  0  0  0  0  0  0  0  0  0
    6.3920   -2.0176   20.1587 H   0  0  0  0  0  0  0  0  0  0  0  0
    9.8635   -3.4748   20.9507 H   0  0  0  0  0  0  0  0  0  0  0  0
   11.8658   -3.4638   18.5182 H   0  0  0  0  0  0  0  0  0  0  0  0
   11.3165   -1.4040   16.5377 H   0  0  0  0  0  0  0  0  0  0  0  0
    0.5145   -1.2015   27.1059 H   0  0  0  0  0  0  0  0  0  0  0  0
   -2.5981    2.0350   28.1239 H   0  0  0  0  0  0  0  0  0  0  0  0
  1  2  1  0
  2  3  1  0
  3  4  1  0
  4  5  1  0
  5  6  2  0
  5  7  1  0
  7  8  1  0
  7  9  1  0
  9 10  1  0
 10 11  2  0
 11 12  1  0
 12 13  1  0
 13 14  2  0
  2 15  1  0
 15 16  1  0
 16 17  2  0
 16 18  1  0
 18 19  2  0
 19 20  1  0
 20 21  1  0
 21 22  2  0
 22 23  1  0
 14 10  1  0
 22 18  1  0
  1 24  1  0
  1 25  1  0
  1 26  1  0
  2 27  1  0
  3 28  1  0
  3 29  1  0
  4 30  1  0
  7 31  1  0
  8 32  1  0
  9 33  1  0
  9 34  1  0
 11 35  1  0
 12 36  1  0
 13 37  1  0
 15 38  1  0
 21 39  1  0
M  END
>  <Energy>  (344) 
1251.6886347335046

>  <compound_id>  (344) 
54347

>  <target_id>  (344) 
1

>  <reference_id>  (344) 
80

>  <inspiration_ids>  (344) 
[59, 80]

>  <energy_score>  (344) 
1155.537040115652

>  <distance_score>  (344) 
7.8478242601754

>  <path>  (344) 
/opt/xchem-fragalysis-2/maxwin/BulkDock/SCRATCH/511020/C54347-P80/C54347-P80.minimised.mol

>  <scratch_subdir>  (344) 
/opt/xchem-fragalysis-2/maxwin/BulkDock/SCRATCH/511020/C54347-P80

>  <fragmenstein_runtime>  (344) 
14.240273714065552

>  <fragmenstein_outcome>  (344) 
too moved

>  <fragmenstein_mode>  (344) 
expansion

>  <fragmenstein_error>  (344) 


$$$$
C54348-P59
     RDKit          3D

 36 37  0  0  0  0  0  0  0  0999 V2000
    5.0900    2.2872   20.8502 C   0  0  0  0  0  0  0  0  0  0  0  0
    6.2450    1.5268   21.2837 N   0  0  0  0  0  0  0  0  0  0  0  0
    6.2072    0.7918   22.6089 C   0  0  0  0  0  0  0  0  0  0  0  0
    5.8489    1.6308   23.9177 C   0  0  0  0  0  0  0  0  0  0  0  0
    4.7212    1.2757   24.8515 N   0  0  0  0  0  0  0  0  0  0  0  0
    4.5721    0.0848   25.8595 C   0  0  0  0  0  0  0  0  0  0  0  0
    5.2702   -0.8353   26.0539 O   0  0  0  0  0  0  0  0  0  0  0  0
    3.3216    0.2134   26.7466 C   0  0  0  0  0  0  0  0  0  0  0  0
    2.5939    1.3503   26.8466 N   0  0  0  0  0  0  0  0  0  0  0  0
    1.5386    1.0887   27.7134 O   0  0  0  0  0  0  0  0  0  0  0  0
    1.6089   -0.1871   28.1491 C   0  0  0  0  0  0  0  0  0  0  0  0
    2.7216   -0.7787   27.6118 C   0  0  0  0  0  0  0  0  0  0  0  0
    3.2577   -2.3626   27.9059 Cl  0  0  0  0  0  0  0  0  0  0  0  0
    7.3601    1.5433   20.3793 C   0  0  0  0  0  0  0  0  0  0  0  0
    8.2167    2.4164   20.4889 O   0  0  0  0  0  0  0  0  0  0  0  0
    7.3800    0.3953   19.2953 C   0  0  0  0  0  0  0  0  0  0  0  0
    6.0430   -0.1242   19.1284 O   0  0  0  0  0  0  0  0  0  0  0  0
    8.0498    0.5787   17.8666 C   0  0  0  0  0  0  0  0  0  0  0  0
    7.4494    0.2940   16.6470 C   0  0  0  0  0  0  0  0  0  0  0  0
    8.4233    0.2143   15.6820 N   0  0  0  0  0  0  0  0  0  0  0  0
    9.5917    0.5071   16.2967 C   0  0  0  0  0  0  0  0  0  0  0  0
    9.4115    0.6183   17.5994 N   0  0  0  0  0  0  0  0  0  0  0  0
    4.7895    2.9897   21.6299 H   0  0  0  0  0  0  0  0  0  0  0  0
    4.2725    1.5965   20.6343 H   0  0  0  0  0  0  0  0  0  0  0  0
    5.3180    2.8483   19.9382 H   0  0  0  0  0  0  0  0  0  0  0  0
    7.2148    0.3791   22.7428 H   0  0  0  0  0  0  0  0  0  0  0  0
    5.5422   -0.0632   22.4885 H   0  0  0  0  0  0  0  0  0  0  0  0
    6.7382    1.5947   24.5586 H   0  0  0  0  0  0  0  0  0  0  0  0
    5.6930    2.6814   23.6555 H   0  0  0  0  0  0  0  0  0  0  0  0
    3.9709    1.9474   25.0042 H   0  0  0  0  0  0  0  0  0  0  0  0
    0.8277   -0.5056   28.8224 H   0  0  0  0  0  0  0  0  0  0  0  0
    7.9463   -0.4071   19.7802 H   0  0  0  0  0  0  0  0  0  0  0  0
    5.7011   -0.2691   20.0278 H   0  0  0  0  0  0  0  0  0  0  0  0
    6.4230    0.0284   16.4328 H   0  0  0  0  0  0  0  0  0  0  0  0
    8.2790    0.0109   14.6956 H   0  0  0  0  0  0  0  0  0  0  0  0
   10.5275    0.5826   15.7593 H   0  0  0  0  0  0  0  0  0  0  0  0
  1  2  1  0
  2  3  1  0
  3  4  1  0
  4  5  1  0
  5  6  1  0
  6  7  2  0
  6  8  1  0
  8  9  2  0
  9 10  1  0
 10 11  1  0
 11 12  2  0
 12 13  1  0
  2 14  1  0
 14 15  2  0
 14 16  1  0
 16 17  1  0
 16 18  1  0
 18 19  2  0
 19 20  1  0
 20 21  1  0
 21 22  2  0
 12  8  1  0
 22 18  1  0
  1 23  1  0
  1 24  1  0
  1 25  1  0
  3 26  1  0
  3 27  1  0
  4 28  1  0
  4 29  1  0
  5 30  1  0
 11 31  1  0
 16 32  1  0
 17 33  1  0
 19 34  1  0
 20 35  1  0
 21 36  1  0
M  END
>  <Energy>  (345) 
136.5780651884744

>  <compound_id>  (345) 
54348

>  <target_id>  (345) 
1

>  <reference_id>  (345) 
59

>  <inspiration_ids>  (345) 
[59, 80]

>  <energy_score>  (345) 
30.682531928088963

>  <distance_score>  (345) 
10.250312713680374

>  <path>  (345) 
/opt/xchem-fragalysis-2/maxwin/BulkDock/SCRATCH/511020/C54348-P59/C54348-P59.minimised.mol

>  <scratch_subdir>  (345) 
/opt/xchem-fragalysis-2/maxwin/BulkDock/SCRATCH/511020/C54348-P59

>  <fragmenstein_runtime>  (345) 
5.069910526275635

>  <fragmenstein_outcome>  (345) 
too moved

>  <fragmenstein_mode>  (345) 
expansion

>  <fragmenstein_error>  (345) 


$$$$
C54348-P80
     RDKit          3D

 36 37  0  0  0  0  0  0  0  0999 V2000
    6.4359    2.2821   22.5455 C   0  0  0  0  0  0  0  0  0  0  0  0
    6.9710    1.7284   21.3795 N   0  0  0  0  0  0  0  0  0  0  0  0
    5.6597    1.7599   22.7362 C   0  0  0  0  0  0  0  0  0  0  0  0
    5.8855    0.6707   24.0595 C   0  0  0  0  0  0  0  0  0  0  0  0
    4.7775    0.6637   24.9829 N   0  0  0  0  0  0  0  0  0  0  0  0
    4.4867    1.4999   26.1103 C   0  0  0  0  0  0  0  0  0  0  0  0
    5.0492    2.4686   26.5275 O   0  0  0  0  0  0  0  0  0  0  0  0
    3.2930    1.0223   26.8677 C   0  0  0  0  0  0  0  0  0  0  0  0
    2.3789    1.8978   27.3395 N   0  0  0  0  0  0  0  0  0  0  0  0
    1.4225    1.1504   28.0024 O   0  0  0  0  0  0  0  0  0  0  0  0
    1.7590   -0.1578   27.9526 C   0  0  0  0  0  0  0  0  0  0  0  0
    2.9319   -0.2972   27.2607 C   0  0  0  0  0  0  0  0  0  0  0  0
    3.7689   -1.7350   26.9683 Cl  0  0  0  0  0  0  0  0  0  0  0  0
    6.6663    0.6594   20.5392 C   0  0  0  0  0  0  0  0  0  0  0  0
    7.0981   -0.4822   20.6763 O   0  0  0  0  0  0  0  0  0  0  0  0
    5.7949    1.0604   19.2985 C   0  0  0  0  0  0  0  0  0  0  0  0
    4.9267    0.0032   18.9059 O   0  0  0  0  0  0  0  0  0  0  0  0
    6.7411    1.4293   18.1528 C   0  0  0  0  0  0  0  0  0  0  0  0
    7.0850    2.6739   17.6609 C   0  0  0  0  0  0  0  0  0  0  0  0
    8.1042    2.4640   16.7663 N   0  0  0  0  0  0  0  0  0  0  0  0
    8.3118    1.1183   16.6881 C   0  0  0  0  0  0  0  0  0  0  0  0
    7.4839    0.4684   17.4768 N   0  0  0  0  0  0  0  0  0  0  0  0
    6.7681    3.2188   23.2309 H   0  0  0  0  0  0  0  0  0  0  0  0
    6.3220    3.2721   21.8738 H   0  0  0  0  0  0  0  0  0  0  0  0
    7.5227    2.0617   22.9727 H   0  0  0  0  0  0  0  0  0  0  0  0
    4.6865    2.4940   22.7971 H   0  0  0  0  0  0  0  0  0  0  0  0
    4.9787    1.0111   22.1724 H   0  0  0  0  0  0  0  0  0  0  0  0
    6.7766    0.9609   24.6288 H   0  0  0  0  0  0  0  0  0  0  0  0
    6.0205   -0.3404   23.6601 H   0  0  0  0  0  0  0  0  0  0  0  0
    4.0317   -0.0264   24.8788 H   0  0  0  0  0  0  0  0  0  0  0  0
    1.0839   -0.8423   28.4426 H   0  0  0  0  0  0  0  0  0  0  0  0
    5.1721    1.9225   19.5601 H   0  0  0  0  0  0  0  0  0  0  0  0
    5.5283   -0.6819   18.5557 H   0  0  0  0  0  0  0  0  0  0  0  0
    6.7439    3.6704   17.9073 H   0  0  0  0  0  0  0  0  0  0  0  0
    8.6147    3.1739   16.2566 H   0  0  0  0  0  0  0  0  0  0  0  0
    9.0475    0.6756   16.0265 H   0  0  0  0  0  0  0  0  0  0  0  0
  1  2  1  0
  2  3  1  0
  3  4  1  0
  4  5  1  0
  5  6  1  0
  6  7  2  0
  6  8  1  0
  8  9  2  0
  9 10  1  0
 10 11  1  0
 11 12  2  0
 12 13  1  0
  2 14  1  0
 14 15  2  0
 14 16  1  0
 16 17  1  0
 16 18  1  0
 18 19  2  0
 19 20  1  0
 20 21  1  0
 21 22  2  0
 12  8  1  0
 22 18  1  0
  1 23  1  0
  1 24  1  0
  1 25  1  0
  3 26  1  0
  3 27  1  0
  4 28  1  0
  4 29  1  0
  5 30  1  0
 11 31  1  0
 16 32  1  0
 17 33  1  0
 19 34  1  0
 20 35  1  0
 21 36  1  0
M  END
>  <Energy>  (346) 
646.21693223276031

>  <compound_id>  (346) 
54348

>  <target_id>  (346) 
1

>  <reference_id>  (346) 
80

>  <inspiration_ids>  (346) 
[59, 80]

>  <energy_score>  (346) 
529.4108132468623

>  <distance_score>  (346) 
10.41238830715517

>  <path>  (346) 
/opt/xchem-fragalysis-2/maxwin/BulkDock/SCRATCH/511020/C54348-P80/C54348-P80.minimised.mol

>  <scratch_subdir>  (346) 
/opt/xchem-fragalysis-2/maxwin/BulkDock/SCRATCH/511020/C54348-P80

>  <fragmenstein_runtime>  (346) 
10.952228307723999

>  <fragmenstein_outcome>  (346) 
too moved

>  <fragmenstein_mode>  (346) 
expansion

>  <fragmenstein_error>  (346) 


$$$$
C54349-P59
     RDKit          3D

 44 45  0  0  0  0  0  0  0  0999 V2000
    3.1030   -2.0820   29.5334 C   0  0  0  0  0  0  0  0  0  0  0  0
    2.5631   -1.0030   30.4997 C   0  0  0  0  0  0  0  0  0  0  0  0
    3.3396    0.3466   30.6010 C   0  0  0  0  0  0  0  0  0  0  0  0
    3.9454    0.8770   29.2945 C   0  0  0  0  0  0  0  0  0  0  0  0
    5.2375    0.3181   28.9634 N   0  0  0  0  0  0  0  0  0  0  0  0
    6.5549    0.8920   29.0183 C   0  0  0  0  0  0  0  0  0  0  0  0
    6.9286    1.9539   29.4272 O   0  0  0  0  0  0  0  0  0  0  0  0
    7.5891   -0.0652   28.4136 C   0  0  0  0  0  0  0  0  0  0  0  0
    7.7216    0.1153   26.8972 C   0  0  0  0  0  0  0  0  0  0  0  0
    6.4836   -0.3092   26.2005 C   0  0  0  0  0  0  0  0  0  0  0  0
    5.5198    0.4416   25.5599 C   0  0  0  0  0  0  0  0  0  0  0  0
    4.6736   -0.4722   24.9946 N   0  0  0  0  0  0  0  0  0  0  0  0
    5.0673   -1.7052   25.4307 C   0  0  0  0  0  0  0  0  0  0  0  0
    6.1306   -1.6304   26.1937 N   0  0  0  0  0  0  0  0  0  0  0  0
    1.0841   -1.0561   30.8900 N   0  0  0  0  0  0  0  0  0  0  0  0
    0.9256   -0.3901   29.5520 C   0  0  0  0  0  0  0  0  0  0  0  0
    0.3576   -0.3355   31.8828 C   0  0  0  0  0  0  0  0  0  0  0  0
    0.7017    0.5613   32.6042 O   0  0  0  0  0  0  0  0  0  0  0  0
   -1.0266   -0.8374   31.9885 C   0  0  0  0  0  0  0  0  0  0  0  0
   -2.0062   -0.0011   32.3853 N   0  0  0  0  0  0  0  0  0  0  0  0
   -3.1736   -0.7250   32.3590 O   0  0  0  0  0  0  0  0  0  0  0  0
   -2.9047   -1.9927   31.9825 C   0  0  0  0  0  0  0  0  0  0  0  0
   -1.5652   -2.1274   31.7374 C   0  0  0  0  0  0  0  0  0  0  0  0
   -0.7633   -3.5512   31.2917 Cl  0  0  0  0  0  0  0  0  0  0  0  0
    4.1448   -2.3197   29.7769 H   0  0  0  0  0  0  0  0  0  0  0  0
    3.0867   -1.7674   28.4856 H   0  0  0  0  0  0  0  0  0  0  0  0
    2.5211   -3.0059   29.6207 H   0  0  0  0  0  0  0  0  0  0  0  0
    2.9093   -1.4494   31.4506 H   0  0  0  0  0  0  0  0  0  0  0  0
    4.1578    0.2252   31.3251 H   0  0  0  0  0  0  0  0  0  0  0  0
    2.6932    1.1222   31.0272 H   0  0  0  0  0  0  0  0  0  0  0  0
    3.2859    0.7154   28.4373 H   0  0  0  0  0  0  0  0  0  0  0  0
    4.0929    1.9582   29.3961 H   0  0  0  0  0  0  0  0  0  0  0  0
    5.2842   -0.5733   28.4729 H   0  0  0  0  0  0  0  0  0  0  0  0
    8.5532    0.1473   28.8919 H   0  0  0  0  0  0  0  0  0  0  0  0
    7.3384   -1.0998   28.6779 H   0  0  0  0  0  0  0  0  0  0  0  0
    8.5635   -0.4836   26.5310 H   0  0  0  0  0  0  0  0  0  0  0  0
    7.9421    1.1634   26.6624 H   0  0  0  0  0  0  0  0  0  0  0  0
    5.4135    1.5036   25.3909 H   0  0  0  0  0  0  0  0  0  0  0  0
    3.9517   -0.2766   24.3067 H   0  0  0  0  0  0  0  0  0  0  0  0
    4.5734   -2.6218   25.1474 H   0  0  0  0  0  0  0  0  0  0  0  0
    1.2073    0.6692   29.5201 H   0  0  0  0  0  0  0  0  0  0  0  0
    1.2108   -0.9736   28.6710 H   0  0  0  0  0  0  0  0  0  0  0  0
   -0.1658   -0.3229   29.4113 H   0  0  0  0  0  0  0  0  0  0  0  0
   -3.7548   -2.6542   31.9585 H   0  0  0  0  0  0  0  0  0  0  0  0
  1  2  1  0
  2  3  1  0
  3  4  1  0
  4  5  1  0
  5  6  1  0
  6  7  2  0
  6  8  1  0
  8  9  1  0
  9 10  1  0
 10 11  2  0
 11 12  1  0
 12 13  1  0
 13 14  2  0
  2 15  1  0
 15 16  1  0
 15 17  1  0
 17 18  2  0
 17 19  1  0
 19 20  2  0
 20 21  1  0
 21 22  1  0
 22 23  2  0
 23 24  1  0
 14 10  1  0
 23 19  1  0
  1 25  1  0
  1 26  1  0
  1 27  1  0
  2 28  1  0
  3 29  1  0
  3 30  1  0
  4 31  1  0
  4 32  1  0
  5 33  1  0
  8 34  1  0
  8 35  1  0
  9 36  1  0
  9 37  1  0
 11 38  1  0
 12 39  1  0
 13 40  1  0
 16 41  1  0
 16 42  1  0
 16 43  1  0
 22 44  1  0
M  END
>  <Energy>  (347) 
80.254353386339815

>  <compound_id>  (347) 
54349

>  <target_id>  (347) 
1

>  <reference_id>  (347) 
59

>  <inspiration_ids>  (347) 
[59, 80]

>  <energy_score>  (347) 
42.26171645863718

>  <distance_score>  (347) 
8.953020681129408

>  <path>  (347) 
/opt/xchem-fragalysis-2/maxwin/BulkDock/SCRATCH/511020/C54349-P59/C54349-P59.minimised.mol

>  <scratch_subdir>  (347) 
/opt/xchem-fragalysis-2/maxwin/BulkDock/SCRATCH/511020/C54349-P59

>  <fragmenstein_runtime>  (347) 
16.25303053855896

>  <fragmenstein_outcome>  (347) 
too moved

>  <fragmenstein_mode>  (347) 
expansion

>  <fragmenstein_error>  (347) 


$$$$
C54349-P80
     RDKit          3D

 44 45  0  0  0  0  0  0  0  0999 V2000
   -0.1323   -6.0856   31.3585 C   0  0  0  0  0  0  0  0  0  0  0  0
    0.2869   -5.5018   29.9818 C   0  0  0  0  0  0  0  0  0  0  0  0
   -0.4485   -6.3739   28.8961 C   0  0  0  0  0  0  0  0  0  0  0  0
   -0.5872   -5.7927   27.4906 C   0  0  0  0  0  0  0  0  0  0  0  0
    0.5255   -6.0072   26.5931 N   0  0  0  0  0  0  0  0  0  0  0  0
    1.8373   -5.1790   26.3653 C   0  0  0  0  0  0  0  0  0  0  0  0
    2.1573   -4.1062   26.8585 O   0  0  0  0  0  0  0  0  0  0  0  0
    3.2320   -6.0407   25.0163 C   0  0  0  0  0  0  0  0  0  0  0  0
    3.9035   -7.6892   24.1602 C   0  0  0  0  0  0  0  0  0  0  0  0
    5.3150   -7.9681   23.4417 C   0  0  0  0  0  0  0  0  0  0  0  0
    5.5411   -8.8690   22.4038 C   0  0  0  0  0  0  0  0  0  0  0  0
    6.8860   -8.8558   22.1697 N   0  0  0  0  0  0  0  0  0  0  0  0
    7.4532   -8.1932   23.2136 C   0  0  0  0  0  0  0  0  0  0  0  0
    6.5479   -7.6338   23.9842 N   0  0  0  0  0  0  0  0  0  0  0  0
   -0.1275   -4.0139   29.7999 N   0  0  0  0  0  0  0  0  0  0  0  0
    1.2751   -3.7844   30.2999 C   0  0  0  0  0  0  0  0  0  0  0  0
   -1.0478   -3.2044   30.5347 C   0  0  0  0  0  0  0  0  0  0  0  0
   -1.6695   -3.4416   31.5375 O   0  0  0  0  0  0  0  0  0  0  0  0
   -1.1657   -1.8554   29.9237 C   0  0  0  0  0  0  0  0  0  0  0  0
   -0.7295   -1.5964   28.6762 N   0  0  0  0  0  0  0  0  0  0  0  0
   -0.9671   -0.2624   28.4402 O   0  0  0  0  0  0  0  0  0  0  0  0
   -1.5411    0.2882   29.5300 C   0  0  0  0  0  0  0  0  0  0  0  0
   -1.6939   -0.6670   30.4989 C   0  0  0  0  0  0  0  0  0  0  0  0
   -2.3565   -0.4358   32.0416 Cl  0  0  0  0  0  0  0  0  0  0  0  0
    0.3389   -5.5718   32.2005 H   0  0  0  0  0  0  0  0  0  0  0  0
   -1.2141   -6.0266   31.5088 H   0  0  0  0  0  0  0  0  0  0  0  0
    0.1466   -7.1424   31.4257 H   0  0  0  0  0  0  0  0  0  0  0  0
    1.3385   -5.7555   29.8095 H   0  0  0  0  0  0  0  0  0  0  0  0
    0.0430   -7.3427   28.8013 H   0  0  0  0  0  0  0  0  0  0  0  0
   -1.4366   -6.6670   29.2501 H   0  0  0  0  0  0  0  0  0  0  0  0
   -1.4401   -6.2643   26.9963 H   0  0  0  0  0  0  0  0  0  0  0  0
   -0.7517   -4.7214   27.5586 H   0  0  0  0  0  0  0  0  0  0  0  0
    0.5308   -6.8127   25.9706 H   0  0  0  0  0  0  0  0  0  0  0  0
    3.6617   -6.6029   25.6564 H   0  0  0  0  0  0  0  0  0  0  0  0
    4.1633   -5.3105   24.9491 H   0  0  0  0  0  0  0  0  0  0  0  0
    3.0824   -8.3005   23.7541 H   0  0  0  0  0  0  0  0  0  0  0  0
    4.3229   -8.3226   24.9392 H   0  0  0  0  0  0  0  0  0  0  0  0
    4.8636   -9.4550   21.7997 H   0  0  0  0  0  0  0  0  0  0  0  0
    7.3772   -9.3514   21.4381 H   0  0  0  0  0  0  0  0  0  0  0  0
    8.5217   -8.1715   23.3683 H   0  0  0  0  0  0  0  0  0  0  0  0
    1.4925   -4.1168   31.3228 H   0  0  0  0  0  0  0  0  0  0  0  0
    1.3868   -2.6925   30.3847 H   0  0  0  0  0  0  0  0  0  0  0  0
    2.0475   -4.0354   29.5583 H   0  0  0  0  0  0  0  0  0  0  0  0
   -1.7703    1.3383   29.4524 H   0  0  0  0  0  0  0  0  0  0  0  0
  1  2  1  0
  2  3  1  0
  3  4  1  0
  4  5  1  0
  5  6  1  0
  6  7  2  0
  6  8  1  0
  8  9  1  0
  9 10  1  0
 10 11  2  0
 11 12  1  0
 12 13  1  0
 13 14  2  0
  2 15  1  0
 15 16  1  0
 15 17  1  0
 17 18  2  0
 17 19  1  0
 19 20  2  0
 20 21  1  0
 21 22  1  0
 22 23  2  0
 23 24  1  0
 14 10  1  0
 23 19  1  0
  1 25  1  0
  1 26  1  0
  1 27  1  0
  2 28  1  0
  3 29  1  0
  3 30  1  0
  4 31  1  0
  4 32  1  0
  5 33  1  0
  8 34  1  0
  8 35  1  0
  9 36  1  0
  9 37  1  0
 11 38  1  0
 12 39  1  0
 13 40  1  0
 16 41  1  0
 16 42  1  0
 16 43  1  0
 22 44  1  0
M  END
>  <Energy>  (348) 
305.48276891122316

>  <compound_id>  (348) 
54349

>  <target_id>  (348) 
1

>  <reference_id>  (348) 
80

>  <inspiration_ids>  (348) 
[59, 80]

>  <energy_score>  (348) 
267.49013198351946

>  <distance_score>  (348) 
8.435251042266179

>  <path>  (348) 
/opt/xchem-fragalysis-2/maxwin/BulkDock/SCRATCH/511020/C54349-P80/C54349-P80.minimised.mol

>  <scratch_subdir>  (348) 
/opt/xchem-fragalysis-2/maxwin/BulkDock/SCRATCH/511020/C54349-P80

>  <fragmenstein_runtime>  (348) 
10.690523624420166

>  <fragmenstein_outcome>  (348) 
too moved

>  <fragmenstein_mode>  (348) 
expansion

>  <fragmenstein_error>  (348) 


$$$$
C54350-P59
     RDKit          3D

 36 37  0  0  0  0  0  0  0  0999 V2000
    2.9540   -1.4823   29.0437 C   0  0  0  0  0  0  0  0  0  0  0  0
    3.9353   -0.5594   28.3120 C   0  0  0  0  0  0  0  0  0  0  0  0
    3.2563    0.3734   27.2912 C   0  0  0  0  0  0  0  0  0  0  0  0
    2.0877    1.0830   27.7076 N   0  0  0  0  0  0  0  0  0  0  0  0
    0.7344    0.6572   27.8447 C   0  0  0  0  0  0  0  0  0  0  0  0
    0.2411   -0.4218   27.7236 O   0  0  0  0  0  0  0  0  0  0  0  0
   -0.1138    1.8255   28.0821 C   0  0  0  0  0  0  0  0  0  0  0  0
    0.3737    2.8981   28.7333 N   0  0  0  0  0  0  0  0  0  0  0  0
   -0.6176    3.8550   28.6627 O   0  0  0  0  0  0  0  0  0  0  0  0
   -1.6801    3.3598   27.9842 C   0  0  0  0  0  0  0  0  0  0  0  0
   -1.4208    2.0731   27.6038 C   0  0  0  0  0  0  0  0  0  0  0  0
   -2.4037    1.0709   26.6670 Cl  0  0  0  0  0  0  0  0  0  0  0  0
    4.9459   -1.3038   27.5669 N   0  0  0  0  0  0  0  0  0  0  0  0
    6.0612   -0.8440   26.7561 C   0  0  0  0  0  0  0  0  0  0  0  0
    6.4796    0.2615   26.5599 O   0  0  0  0  0  0  0  0  0  0  0  0
    6.6645   -2.0745   25.9962 C   0  0  0  0  0  0  0  0  0  0  0  0
    7.4628   -2.8991   26.8387 O   0  0  0  0  0  0  0  0  0  0  0  0
    7.3935   -1.7017   24.6661 C   0  0  0  0  0  0  0  0  0  0  0  0
    8.1987   -0.1427   24.2711 C   0  0  0  0  0  0  0  0  0  0  0  0
    8.5837   -0.1315   22.3393 N   0  0  0  0  0  0  0  0  0  0  0  0
    7.4669   -1.6509   21.3398 C   0  0  0  0  0  0  0  0  0  0  0  0
    6.7727   -2.6239   22.8956 N   0  0  0  0  0  0  0  0  0  0  0  0
    3.4995   -2.1737   29.6955 H   0  0  0  0  0  0  0  0  0  0  0  0
    2.3795   -2.0883   28.3352 H   0  0  0  0  0  0  0  0  0  0  0  0
    2.2616   -0.9137   29.6709 H   0  0  0  0  0  0  0  0  0  0  0  0
    4.4671    0.0525   29.0497 H   0  0  0  0  0  0  0  0  0  0  0  0
    3.9672    1.1285   26.9376 H   0  0  0  0  0  0  0  0  0  0  0  0
    2.9596   -0.2138   26.4154 H   0  0  0  0  0  0  0  0  0  0  0  0
    2.1538    2.0670   27.9665 H   0  0  0  0  0  0  0  0  0  0  0  0
   -2.5172    4.0333   27.8708 H   0  0  0  0  0  0  0  0  0  0  0  0
    4.9327   -2.3198   27.5673 H   0  0  0  0  0  0  0  0  0  0  0  0
    5.8005   -2.6798   25.6824 H   0  0  0  0  0  0  0  0  0  0  0  0
    7.8373   -3.5423   26.2008 H   0  0  0  0  0  0  0  0  0  0  0  0
    8.9458    0.4542   24.8047 H   0  0  0  0  0  0  0  0  0  0  0  0
    9.3458    0.3680   21.8816 H   0  0  0  0  0  0  0  0  0  0  0  0
    6.8556   -1.1570   20.5381 H   0  0  0  0  0  0  0  0  0  0  0  0
  1  2  1  0
  2  3  1  0
  3  4  1  0
  4  5  1  0
  5  6  2  0
  5  7  1  0
  7  8  2  0
  8  9  1  0
  9 10  1  0
 10 11  2  0
 11 12  1  0
  2 13  1  0
 13 14  1  0
 14 15  2  0
 14 16  1  0
 16 17  1  0
 16 18  1  0
 18 19  2  0
 19 20  1  0
 20 21  1  0
 21 22  2  0
 11  7  1  0
 22 18  1  0
  1 23  1  0
  1 24  1  0
  1 25  1  0
  2 26  1  0
  3 27  1  0
  3 28  1  0
  4 29  1  0
 10 30  1  0
 13 31  1  0
 16 32  1  0
 17 33  1  0
 19 34  1  0
 20 35  1  0
 21 36  1  0
M  END
>  <Energy>  (349) 
764.70422922578848

>  <compound_id>  (349) 
54350

>  <target_id>  (349) 
1

>  <reference_id>  (349) 
59

>  <inspiration_ids>  (349) 
[59, 80]

>  <energy_score>  (349) 
654.9576180306616

>  <distance_score>  (349) 
8.634996789171161

>  <path>  (349) 
/opt/xchem-fragalysis-2/maxwin/BulkDock/SCRATCH/511020/C54350-P59/C54350-P59.minimised.mol

>  <scratch_subdir>  (349) 
/opt/xchem-fragalysis-2/maxwin/BulkDock/SCRATCH/511020/C54350-P59

>  <fragmenstein_runtime>  (349) 
8.605829954147339

>  <fragmenstein_outcome>  (349) 
too moved

>  <fragmenstein_mode>  (349) 
expansion

>  <fragmenstein_error>  (349) 


$$$$
C54350-P80
     RDKit          3D

 36 37  0  0  0  0  0  0  0  0999 V2000
    4.1845   -2.1742   28.5435 C   0  0  0  0  0  0  0  0  0  0  0  0
    5.2793   -1.2255   27.7701 C   0  0  0  0  0  0  0  0  0  0  0  0
    5.2362    0.1692   28.4751 C   0  0  0  0  0  0  0  0  0  0  0  0
    3.8747    0.3966   28.9951 N   0  0  0  0  0  0  0  0  0  0  0  0
    2.5920    0.8811   28.2765 C   0  0  0  0  0  0  0  0  0  0  0  0
    2.4326    1.2488   27.1809 O   0  0  0  0  0  0  0  0  0  0  0  0
    1.4098    0.7276   29.1804 C   0  0  0  0  0  0  0  0  0  0  0  0
    1.5426    0.3543   30.4735 N   0  0  0  0  0  0  0  0  0  0  0  0
    0.2640    0.1754   30.9640 O   0  0  0  0  0  0  0  0  0  0  0  0
   -0.6364    0.4249   29.9908 C   0  0  0  0  0  0  0  0  0  0  0  0
    0.0198    0.7961   28.8511 C   0  0  0  0  0  0  0  0  0  0  0  0
   -0.7141    1.2310   27.3903 Cl  0  0  0  0  0  0  0  0  0  0  0  0
    6.6600   -1.8599   27.4540 N   0  0  0  0  0  0  0  0  0  0  0  0
    8.0440   -1.1742   27.0056 C   0  0  0  0  0  0  0  0  0  0  0  0
    8.3309   -0.0304   26.8957 O   0  0  0  0  0  0  0  0  0  0  0  0
    9.2171   -2.3594   26.7055 C   0  0  0  0  0  0  0  0  0  0  0  0
    8.7141   -3.6973   26.6864 O   0  0  0  0  0  0  0  0  0  0  0  0
   10.3269   -2.2211   25.4996 C   0  0  0  0  0  0  0  0  0  0  0  0
   11.2049   -1.2093   25.1246 C   0  0  0  0  0  0  0  0  0  0  0  0
   12.0522   -1.7317   24.1704 N   0  0  0  0  0  0  0  0  0  0  0  0
   11.6870   -3.0292   23.9493 C   0  0  0  0  0  0  0  0  0  0  0  0
   10.6620   -3.3603   24.7150 N   0  0  0  0  0  0  0  0  0  0  0  0
    4.2807   -3.1915   28.1497 H   0  0  0  0  0  0  0  0  0  0  0  0
    4.4074   -2.2090   29.6143 H   0  0  0  0  0  0  0  0  0  0  0  0
    3.1568   -1.8511   28.3640 H   0  0  0  0  0  0  0  0  0  0  0  0
    4.8556   -1.0863   26.7659 H   0  0  0  0  0  0  0  0  0  0  0  0
    5.4844    0.9644   27.7664 H   0  0  0  0  0  0  0  0  0  0  0  0
    5.9253    0.1979   29.3237 H   0  0  0  0  0  0  0  0  0  0  0  0
    3.6708    0.2279   29.9774 H   0  0  0  0  0  0  0  0  0  0  0  0
   -1.6741    0.3110   30.2626 H   0  0  0  0  0  0  0  0  0  0  0  0
    6.7331   -2.8739   27.3596 H   0  0  0  0  0  0  0  0  0  0  0  0
    9.8366   -2.3026   27.6123 H   0  0  0  0  0  0  0  0  0  0  0  0
    9.0302   -4.0405   25.8246 H   0  0  0  0  0  0  0  0  0  0  0  0
   11.3042   -0.1870   25.4613 H   0  0  0  0  0  0  0  0  0  0  0  0
   12.6927   -1.2137   23.5828 H   0  0  0  0  0  0  0  0  0  0  0  0
   12.1661   -3.6534   23.2069 H   0  0  0  0  0  0  0  0  0  0  0  0
  1  2  1  0
  2  3  1  0
  3  4  1  0
  4  5  1  0
  5  6  2  0
  5  7  1  0
  7  8  2  0
  8  9  1  0
  9 10  1  0
 10 11  2  0
 11 12  1  0
  2 13  1  0
 13 14  1  0
 14 15  2  0
 14 16  1  0
 16 17  1  0
 16 18  1  0
 18 19  2  0
 19 20  1  0
 20 21  1  0
 21 22  2  0
 11  7  1  0
 22 18  1  0
  1 23  1  0
  1 24  1  0
  1 25  1  0
  2 26  1  0
  3 27  1  0
  3 28  1  0
  4 29  1  0
 10 30  1  0
 13 31  1  0
 16 32  1  0
 17 33  1  0
 19 34  1  0
 20 35  1  0
 21 36  1  0
M  END
>  <Energy>  (350) 
126.9650581847412

>  <compound_id>  (350) 
54350

>  <target_id>  (350) 
1

>  <reference_id>  (350) 
80

>  <inspiration_ids>  (350) 
[59, 80]

>  <energy_score>  (350) 
35.192768438191194

>  <distance_score>  (350) 
9.166461718587247

>  <path>  (350) 
/opt/xchem-fragalysis-2/maxwin/BulkDock/SCRATCH/511020/C54350-P80/C54350-P80.minimised.mol

>  <scratch_subdir>  (350) 
/opt/xchem-fragalysis-2/maxwin/BulkDock/SCRATCH/511020/C54350-P80

>  <fragmenstein_runtime>  (350) 
8.736226081848145

>  <fragmenstein_outcome>  (350) 
too moved

>  <fragmenstein_mode>  (350) 
expansion

>  <fragmenstein_error>  (350) 


$$$$
C54351-P59
     RDKit          3D

 39 40  0  0  0  0  0  0  0  0999 V2000
    4.8439   -1.4513   27.9313 C   0  0  0  0  0  0  0  0  0  0  0  0
    3.9278   -0.8332   26.8882 C   0  0  0  0  0  0  0  0  0  0  0  0
    3.6610    0.6557   27.1844 C   0  0  0  0  0  0  0  0  0  0  0  0
    2.2975    0.8266   27.6240 N   0  0  0  0  0  0  0  0  0  0  0  0
    1.6893    0.6148   28.9035 C   0  0  0  0  0  0  0  0  0  0  0  0
    2.1709    0.3180   29.9555 O   0  0  0  0  0  0  0  0  0  0  0  0
    0.2112    0.7161   28.8104 C   0  0  0  0  0  0  0  0  0  0  0  0
   -0.5739    0.0015   29.6434 N   0  0  0  0  0  0  0  0  0  0  0  0
   -1.8746    0.2311   29.2413 O   0  0  0  0  0  0  0  0  0  0  0  0
   -1.8785    1.1059   28.2112 C   0  0  0  0  0  0  0  0  0  0  0  0
   -0.5970    1.4692   27.9168 C   0  0  0  0  0  0  0  0  0  0  0  0
   -0.1181    2.5867   26.7351 Cl  0  0  0  0  0  0  0  0  0  0  0  0
    4.3317   -1.0624   25.5036 N   0  0  0  0  0  0  0  0  0  0  0  0
    4.4886   -2.2902   24.7503 C   0  0  0  0  0  0  0  0  0  0  0  0
    4.4032   -3.4348   25.0988 O   0  0  0  0  0  0  0  0  0  0  0  0
    4.7348   -1.8762   23.0181 C   0  0  0  0  0  0  0  0  0  0  0  0
    5.0495   -0.4153   23.4144 O   0  0  0  0  0  0  0  0  0  0  0  0
    5.5974   -2.3411   21.1871 C   0  0  0  0  0  0  0  0  0  0  0  0
    5.9763   -0.9124   20.1543 C   0  0  0  0  0  0  0  0  0  0  0  0
    5.5004   -0.5584   18.8841 C   0  0  0  0  0  0  0  0  0  0  0  0
    6.2296    0.5176   18.4501 N   0  0  0  0  0  0  0  0  0  0  0  0
    7.2459    0.6894   19.3302 C   0  0  0  0  0  0  0  0  0  0  0  0
    7.1837   -0.2108   20.2816 N   0  0  0  0  0  0  0  0  0  0  0  0
    4.4524   -1.3050   28.9431 H   0  0  0  0  0  0  0  0  0  0  0  0
    4.9555   -2.5282   27.7664 H   0  0  0  0  0  0  0  0  0  0  0  0
    5.8451   -1.0093   27.8813 H   0  0  0  0  0  0  0  0  0  0  0  0
    2.9871   -1.3885   26.9856 H   0  0  0  0  0  0  0  0  0  0  0  0
    4.3140    1.0301   27.9794 H   0  0  0  0  0  0  0  0  0  0  0  0
    3.7899    1.2853   26.2985 H   0  0  0  0  0  0  0  0  0  0  0  0
    1.5726    0.9846   26.9365 H   0  0  0  0  0  0  0  0  0  0  0  0
   -2.8436    1.3924   27.8248 H   0  0  0  0  0  0  0  0  0  0  0  0
    4.5585   -0.2698   24.8978 H   0  0  0  0  0  0  0  0  0  0  0  0
    5.5904   -2.5159   23.4042 H   0  0  0  0  0  0  0  0  0  0  0  0
    4.5458    0.1088   22.7601 H   0  0  0  0  0  0  0  0  0  0  0  0
    5.1159   -3.0498   20.5157 H   0  0  0  0  0  0  0  0  0  0  0  0
    6.5709   -2.8172   21.4228 H   0  0  0  0  0  0  0  0  0  0  0  0
    4.7370   -0.9757   18.2418 H   0  0  0  0  0  0  0  0  0  0  0  0
    6.0837    1.0363   17.5952 H   0  0  0  0  0  0  0  0  0  0  0  0
    8.0018    1.4559   19.2207 H   0  0  0  0  0  0  0  0  0  0  0  0
  1  2  1  0
  2  3  1  0
  3  4  1  0
  4  5  1  0
  5  6  2  0
  5  7  1  0
  7  8  2  0
  8  9  1  0
  9 10  1  0
 10 11  2  0
 11 12  1  0
  2 13  1  0
 13 14  1  0
 14 15  2  0
 14 16  1  0
 16 17  1  0
 16 18  1  0
 18 19  1  0
 19 20  2  0
 20 21  1  0
 21 22  1  0
 22 23  2  0
 11  7  1  0
 23 19  1  0
  1 24  1  0
  1 25  1  0
  1 26  1  0
  2 27  1  0
  3 28  1  0
  3 29  1  0
  4 30  1  0
 10 31  1  0
 13 32  1  0
 16 33  1  0
 17 34  1  0
 18 35  1  0
 18 36  1  0
 20 37  1  0
 21 38  1  0
 22 39  1  0
M  END
>  <Energy>  (351) 
237.32050922379861

>  <compound_id>  (351) 
54351

>  <target_id>  (351) 
1

>  <reference_id>  (351) 
59

>  <inspiration_ids>  (351) 
[59, 80]

>  <energy_score>  (351) 
163.7323665055835

>  <distance_score>  (351) 
8.24351538469552

>  <path>  (351) 
/opt/xchem-fragalysis-2/maxwin/BulkDock/SCRATCH/511020/C54351-P59/C54351-P59.minimised.mol

>  <scratch_subdir>  (351) 
/opt/xchem-fragalysis-2/maxwin/BulkDock/SCRATCH/511020/C54351-P59

>  <fragmenstein_runtime>  (351) 
9.417397737503052

>  <fragmenstein_outcome>  (351) 
too moved

>  <fragmenstein_mode>  (351) 
expansion

>  <fragmenstein_error>  (351) 


$$$$
C54351-P80
     RDKit          3D

 39 40  0  0  0  0  0  0  0  0999 V2000
    1.9466    2.3919   20.4316 C   0  0  0  0  0  0  0  0  0  0  0  0
    3.4151    2.5997   20.8433 C   0  0  0  0  0  0  0  0  0  0  0  0
    3.5395    3.8880   21.6978 C   0  0  0  0  0  0  0  0  0  0  0  0
    2.8567    3.7467   22.9859 N   0  0  0  0  0  0  0  0  0  0  0  0
    3.2965    4.0304   24.3189 C   0  0  0  0  0  0  0  0  0  0  0  0
    4.3068    4.5306   24.7169 O   0  0  0  0  0  0  0  0  0  0  0  0
    2.3169    3.4974   25.3138 C   0  0  0  0  0  0  0  0  0  0  0  0
    1.0598    3.1507   24.9533 N   0  0  0  0  0  0  0  0  0  0  0  0
    0.4425    2.6778   26.0992 O   0  0  0  0  0  0  0  0  0  0  0  0
    1.3122    2.7213   27.1326 C   0  0  0  0  0  0  0  0  0  0  0  0
    2.5070    3.2316   26.7004 C   0  0  0  0  0  0  0  0  0  0  0  0
    3.9017    3.4610   27.6352 Cl  0  0  0  0  0  0  0  0  0  0  0  0
    4.2977    2.5209   19.6611 N   0  0  0  0  0  0  0  0  0  0  0  0
    5.6878    2.1287   19.5377 C   0  0  0  0  0  0  0  0  0  0  0  0
    6.4981    1.8444   20.3755 O   0  0  0  0  0  0  0  0  0  0  0  0
    6.0923    1.9793   18.0117 C   0  0  0  0  0  0  0  0  0  0  0  0
    4.9484    2.1298   17.1545 O   0  0  0  0  0  0  0  0  0  0  0  0
    6.7760    0.6034   17.7430 C   0  0  0  0  0  0  0  0  0  0  0  0
    8.0070    0.5880   16.8535 C   0  0  0  0  0  0  0  0  0  0  0  0
    8.3925   -0.3736   15.9318 C   0  0  0  0  0  0  0  0  0  0  0  0
    9.5472    0.0785   15.3531 N   0  0  0  0  0  0  0  0  0  0  0  0
    9.8418    1.2679   15.9543 C   0  0  0  0  0  0  0  0  0  0  0  0
    8.9469    1.5868   16.8689 N   0  0  0  0  0  0  0  0  0  0  0  0
    1.6647    3.1229   19.6644 H   0  0  0  0  0  0  0  0  0  0  0  0
    1.2400    2.5047   21.2520 H   0  0  0  0  0  0  0  0  0  0  0  0
    1.8093    1.4001   19.9894 H   0  0  0  0  0  0  0  0  0  0  0  0
    3.7177    1.7634   21.4777 H   0  0  0  0  0  0  0  0  0  0  0  0
    3.0880    4.7403   21.1791 H   0  0  0  0  0  0  0  0  0  0  0  0
    4.5893    4.1331   21.8871 H   0  0  0  0  0  0  0  0  0  0  0  0
    1.9782    3.2407   23.0293 H   0  0  0  0  0  0  0  0  0  0  0  0
    0.9405    2.3646   28.0807 H   0  0  0  0  0  0  0  0  0  0  0  0
    3.9396    2.7690   18.7404 H   0  0  0  0  0  0  0  0  0  0  0  0
    6.7697    2.8121   17.7948 H   0  0  0  0  0  0  0  0  0  0  0  0
    4.4084    1.3224   17.2469 H   0  0  0  0  0  0  0  0  0  0  0  0
    7.0356    0.1216   18.6894 H   0  0  0  0  0  0  0  0  0  0  0  0
    6.0366   -0.0625   17.2776 H   0  0  0  0  0  0  0  0  0  0  0  0
    7.9133   -1.2713   15.5629 H   0  0  0  0  0  0  0  0  0  0  0  0
   10.0221   -0.3516   14.5641 H   0  0  0  0  0  0  0  0  0  0  0  0
   10.7097    1.8566   15.6861 H   0  0  0  0  0  0  0  0  0  0  0  0
  1  2  1  0
  2  3  1  0
  3  4  1  0
  4  5  1  0
  5  6  2  0
  5  7  1  0
  7  8  2  0
  8  9  1  0
  9 10  1  0
 10 11  2  0
 11 12  1  0
  2 13  1  0
 13 14  1  0
 14 15  2  0
 14 16  1  0
 16 17  1  0
 16 18  1  0
 18 19  1  0
 19 20  2  0
 20 21  1  0
 21 22  1  0
 22 23  2  0
 11  7  1  0
 23 19  1  0
  1 24  1  0
  1 25  1  0
  1 26  1  0
  2 27  1  0
  3 28  1  0
  3 29  1  0
  4 30  1  0
 10 31  1  0
 13 32  1  0
 16 33  1  0
 17 34  1  0
 18 35  1  0
 18 36  1  0
 20 37  1  0
 21 38  1  0
 22 39  1  0
M  END
>  <Energy>  (352) 
53.430958755752869

>  <compound_id>  (352) 
54351

>  <target_id>  (352) 
1

>  <reference_id>  (352) 
80

>  <inspiration_ids>  (352) 
[59, 80]

>  <energy_score>  (352) 
-20.15718396246433

>  <distance_score>  (352) 
10.834855380729177

>  <path>  (352) 
/opt/xchem-fragalysis-2/maxwin/BulkDock/SCRATCH/511020/C54351-P80/C54351-P80.minimised.mol

>  <scratch_subdir>  (352) 
/opt/xchem-fragalysis-2/maxwin/BulkDock/SCRATCH/511020/C54351-P80

>  <fragmenstein_runtime>  (352) 
16.780597686767578

>  <fragmenstein_outcome>  (352) 
too moved

>  <fragmenstein_mode>  (352) 
expansion

>  <fragmenstein_error>  (352) 


$$$$
C54352-P59
     RDKit          3D

 41 42  0  0  0  0  0  0  0  0999 V2000
    9.2582   -0.4194   27.8197 C   0  0  0  0  0  0  0  0  0  0  0  0
    8.2759    0.4832   27.0277 C   0  0  0  0  0  0  0  0  0  0  0  0
    8.9634    1.7494   26.3990 C   0  0  0  0  0  0  0  0  0  0  0  0
    9.9914    1.4237   25.4158 N   0  0  0  0  0  0  0  0  0  0  0  0
   11.2126    2.1104   25.0589 C   0  0  0  0  0  0  0  0  0  0  0  0
   11.7304    3.0777   25.5332 O   0  0  0  0  0  0  0  0  0  0  0  0
   11.8646    1.3584   23.8919 C   0  0  0  0  0  0  0  0  0  0  0  0
   13.1996    1.9307   23.4119 C   0  0  0  0  0  0  0  0  0  0  0  0
   13.8283    1.1543   22.2776 C   0  0  0  0  0  0  0  0  0  0  0  0
   14.3668    1.6547   21.1795 N   0  0  0  0  0  0  0  0  0  0  0  0
   14.9337    0.5972   20.5137 C   0  0  0  0  0  0  0  0  0  0  0  0
   14.6697   -0.5807   21.1652 C   0  0  0  0  0  0  0  0  0  0  0  0
   13.9638   -0.2168   22.2796 N   0  0  0  0  0  0  0  0  0  0  0  0
    6.7724    0.5331   27.4131 N   0  0  0  0  0  0  0  0  0  0  0  0
    7.3203    1.2501   28.6106 C   0  0  0  0  0  0  0  0  0  0  0  0
    5.8766   -0.5119   27.8323 C   0  0  0  0  0  0  0  0  0  0  0  0
    6.0891   -1.6687   28.0765 O   0  0  0  0  0  0  0  0  0  0  0  0
    4.4556   -0.0493   27.9245 C   0  0  0  0  0  0  0  0  0  0  0  0
    4.1028    1.2536   27.8965 N   0  0  0  0  0  0  0  0  0  0  0  0
    2.7275    1.2942   28.0314 O   0  0  0  0  0  0  0  0  0  0  0  0
    2.2438    0.0371   28.1354 C   0  0  0  0  0  0  0  0  0  0  0  0
    3.2823   -0.8531   28.0857 C   0  0  0  0  0  0  0  0  0  0  0  0
    3.1529   -2.5417   28.1836 Cl  0  0  0  0  0  0  0  0  0  0  0  0
   10.0666   -0.7664   27.1659 H   0  0  0  0  0  0  0  0  0  0  0  0
    9.7347    0.1196   28.6454 H   0  0  0  0  0  0  0  0  0  0  0  0
    8.7563   -1.3053   28.2201 H   0  0  0  0  0  0  0  0  0  0  0  0
    8.1321   -0.1483   26.1330 H   0  0  0  0  0  0  0  0  0  0  0  0
    8.2193    2.3672   25.8862 H   0  0  0  0  0  0  0  0  0  0  0  0
    9.4457    2.3713   27.1601 H   0  0  0  0  0  0  0  0  0  0  0  0
    9.8169    0.6863   24.7412 H   0  0  0  0  0  0  0  0  0  0  0  0
   11.1526    1.3620   23.0588 H   0  0  0  0  0  0  0  0  0  0  0  0
   12.0184    0.3305   24.2391 H   0  0  0  0  0  0  0  0  0  0  0  0
   13.0555    2.9688   23.0879 H   0  0  0  0  0  0  0  0  0  0  0  0
   13.9120    1.9612   24.2455 H   0  0  0  0  0  0  0  0  0  0  0  0
   15.4839    0.7426   19.5929 H   0  0  0  0  0  0  0  0  0  0  0  0
   14.9198   -1.6099   20.9514 H   0  0  0  0  0  0  0  0  0  0  0  0
   13.5772   -0.8433   22.9742 H   0  0  0  0  0  0  0  0  0  0  0  0
    6.4301    1.5937   29.1600 H   0  0  0  0  0  0  0  0  0  0  0  0
    7.7855    0.5981   29.3605 H   0  0  0  0  0  0  0  0  0  0  0  0
    7.8344    2.1993   28.4320 H   0  0  0  0  0  0  0  0  0  0  0  0
    1.1726   -0.0521   28.2343 H   0  0  0  0  0  0  0  0  0  0  0  0
  1  2  1  0
  2  3  1  0
  3  4  1  0
  4  5  1  0
  5  6  2  0
  5  7  1  0
  7  8  1  0
  8  9  1  0
  9 10  2  0
 10 11  1  0
 11 12  2  0
 12 13  1  0
  2 14  1  0
 14 15  1  0
 14 16  1  0
 16 17  2  0
 16 18  1  0
 18 19  2  0
 19 20  1  0
 20 21  1  0
 21 22  2  0
 22 23  1  0
 13  9  1  0
 22 18  1  0
  1 24  1  0
  1 25  1  0
  1 26  1  0
  2 27  1  0
  3 28  1  0
  3 29  1  0
  4 30  1  0
  7 31  1  0
  7 32  1  0
  8 33  1  0
  8 34  1  0
 11 35  1  0
 12 36  1  0
 13 37  1  0
 15 38  1  0
 15 39  1  0
 15 40  1  0
 21 41  1  0
M  END
>  <Energy>  (353) 
93.445709439686937

>  <compound_id>  (353) 
54352

>  <target_id>  (353) 
1

>  <reference_id>  (353) 
59

>  <inspiration_ids>  (353) 
[59, 80]

>  <energy_score>  (353) 
41.793115287237924

>  <distance_score>  (353) 
10.638097962879941

>  <path>  (353) 
/opt/xchem-fragalysis-2/maxwin/BulkDock/SCRATCH/511020/C54352-P59/C54352-P59.minimised.mol

>  <scratch_subdir>  (353) 
/opt/xchem-fragalysis-2/maxwin/BulkDock/SCRATCH/511020/C54352-P59

>  <fragmenstein_runtime>  (353) 
16.22405433654785

>  <fragmenstein_outcome>  (353) 
too moved

>  <fragmenstein_mode>  (353) 
expansion

>  <fragmenstein_error>  (353) 


$$$$
C54352-P80
     RDKit          3D

 41 42  0  0  0  0  0  0  0  0999 V2000
    2.3648    3.7563   31.4241 C   0  0  0  0  0  0  0  0  0  0  0  0
    2.9913    2.3605   31.1968 C   0  0  0  0  0  0  0  0  0  0  0  0
    3.8944    2.4939   29.9274 C   0  0  0  0  0  0  0  0  0  0  0  0
    4.6929    1.3281   29.6414 N   0  0  0  0  0  0  0  0  0  0  0  0
    5.8424    0.7931   30.3019 C   0  0  0  0  0  0  0  0  0  0  0  0
    6.3925    1.1310   31.3107 O   0  0  0  0  0  0  0  0  0  0  0  0
    6.3417   -0.4770   29.6031 C   0  0  0  0  0  0  0  0  0  0  0  0
    6.9117   -0.2531   28.2059 C   0  0  0  0  0  0  0  0  0  0  0  0
    5.8434   -0.3569   27.1754 C   0  0  0  0  0  0  0  0  0  0  0  0
    4.9662    0.5778   26.8734 N   0  0  0  0  0  0  0  0  0  0  0  0
    4.1150   -0.0052   25.9699 C   0  0  0  0  0  0  0  0  0  0  0  0
    4.4858   -1.2913   25.6969 C   0  0  0  0  0  0  0  0  0  0  0  0
    5.5922   -1.4995   26.4657 N   0  0  0  0  0  0  0  0  0  0  0  0
    1.8311    1.3555   30.8802 N   0  0  0  0  0  0  0  0  0  0  0  0
    2.5584    0.5271   31.8940 C   0  0  0  0  0  0  0  0  0  0  0  0
    0.4418    1.4061   31.1978 C   0  0  0  0  0  0  0  0  0  0  0  0
   -0.1784    2.1890   31.8677 O   0  0  0  0  0  0  0  0  0  0  0  0
   -0.2923    0.3046   30.5271 C   0  0  0  0  0  0  0  0  0  0  0  0
   -1.4638   -0.1278   31.0420 N   0  0  0  0  0  0  0  0  0  0  0  0
   -1.8894   -1.1563   30.2295 O   0  0  0  0  0  0  0  0  0  0  0  0
   -1.0117   -1.3300   29.2185 C   0  0  0  0  0  0  0  0  0  0  0  0
    0.0187   -0.4396   29.3531 C   0  0  0  0  0  0  0  0  0  0  0  0
    1.3354   -0.2856   28.3001 Cl  0  0  0  0  0  0  0  0  0  0  0  0
    1.7756    3.7700   32.3465 H   0  0  0  0  0  0  0  0  0  0  0  0
    3.1426    4.5213   31.5251 H   0  0  0  0  0  0  0  0  0  0  0  0
    1.7106    4.0448   30.5939 H   0  0  0  0  0  0  0  0  0  0  0  0
    3.6457    2.2264   32.0782 H   0  0  0  0  0  0  0  0  0  0  0  0
    3.2853    2.6955   29.0392 H   0  0  0  0  0  0  0  0  0  0  0  0
    4.5954    3.3257   30.0608 H   0  0  0  0  0  0  0  0  0  0  0  0
    4.5589    0.8360   28.7549 H   0  0  0  0  0  0  0  0  0  0  0  0
    5.5353   -1.2210   29.6123 H   0  0  0  0  0  0  0  0  0  0  0  0
    7.1431   -0.8822   30.2354 H   0  0  0  0  0  0  0  0  0  0  0  0
    7.3961    0.7274   28.1336 H   0  0  0  0  0  0  0  0  0  0  0  0
    7.6804   -1.0086   28.0023 H   0  0  0  0  0  0  0  0  0  0  0  0
    3.2926    0.5467   25.5441 H   0  0  0  0  0  0  0  0  0  0  0  0
    4.0806   -2.0430   25.0350 H   0  0  0  0  0  0  0  0  0  0  0  0
    6.1156   -2.3685   26.4942 H   0  0  0  0  0  0  0  0  0  0  0  0
    2.4449    0.9032   32.9240 H   0  0  0  0  0  0  0  0  0  0  0  0
    3.5739    0.2186   31.6243 H   0  0  0  0  0  0  0  0  0  0  0  0
    2.0195   -0.4322   31.9277 H   0  0  0  0  0  0  0  0  0  0  0  0
   -1.2568   -2.1020   28.5041 H   0  0  0  0  0  0  0  0  0  0  0  0
  1  2  1  0
  2  3  1  0
  3  4  1  0
  4  5  1  0
  5  6  2  0
  5  7  1  0
  7  8  1  0
  8  9  1  0
  9 10  2  0
 10 11  1  0
 11 12  2  0
 12 13  1  0
  2 14  1  0
 14 15  1  0
 14 16  1  0
 16 17  2  0
 16 18  1  0
 18 19  2  0
 19 20  1  0
 20 21  1  0
 21 22  2  0
 22 23  1  0
 13  9  1  0
 22 18  1  0
  1 24  1  0
  1 25  1  0
  1 26  1  0
  2 27  1  0
  3 28  1  0
  3 29  1  0
  4 30  1  0
  7 31  1  0
  7 32  1  0
  8 33  1  0
  8 34  1  0
 11 35  1  0
 12 36  1  0
 13 37  1  0
 15 38  1  0
 15 39  1  0
 15 40  1  0
 21 41  1  0
M  END
>  <Energy>  (354) 
79.277762148584543

>  <compound_id>  (354) 
54352

>  <target_id>  (354) 
1

>  <reference_id>  (354) 
80

>  <inspiration_ids>  (354) 
[59, 80]

>  <energy_score>  (354) 
27.625167996137407

>  <distance_score>  (354) 
9.392062677066

>  <path>  (354) 
/opt/xchem-fragalysis-2/maxwin/BulkDock/SCRATCH/511020/C54352-P80/C54352-P80.minimised.mol

>  <scratch_subdir>  (354) 
/opt/xchem-fragalysis-2/maxwin/BulkDock/SCRATCH/511020/C54352-P80

>  <fragmenstein_runtime>  (354) 
14.7262122631073

>  <fragmenstein_outcome>  (354) 
too moved

>  <fragmenstein_mode>  (354) 
expansion

>  <fragmenstein_error>  (354) 


$$$$
C54353-P59
     RDKit          3D

 48 50  0  0  0  0  0  0  0  0999 V2000
    4.4104    0.6970   21.5808 C   0  0  0  0  0  0  0  0  0  0  0  0
    4.9660   -0.7419   21.8266 N   0  0  0  0  0  0  0  0  0  0  0  0
    6.3918   -1.0995   20.6121 C   0  0  0  0  0  0  0  0  0  0  0  0
    7.4413   -0.0681   19.4006 C   0  0  0  0  0  0  0  0  0  0  0  0
    7.6200    0.3105   17.9241 C   0  0  0  0  0  0  0  0  0  0  0  0
    8.8280    0.2614   16.9990 C   0  0  0  0  0  0  0  0  0  0  0  0
    9.5272   -0.7962   16.6387 N   0  0  0  0  0  0  0  0  0  0  0  0
   10.2412   -0.4344   15.5230 C   0  0  0  0  0  0  0  0  0  0  0  0
   10.0479    0.8940   15.2484 C   0  0  0  0  0  0  0  0  0  0  0  0
    9.1600    1.3308   16.1924 N   0  0  0  0  0  0  0  0  0  0  0  0
    4.7022   -1.3425   23.4094 C   0  0  0  0  0  0  0  0  0  0  0  0
    4.5714   -0.3975   24.7456 C   0  0  0  0  0  0  0  0  0  0  0  0
    4.4746   -1.1780   26.0970 C   0  0  0  0  0  0  0  0  0  0  0  0
    3.3716   -0.7710   27.0593 C   0  0  0  0  0  0  0  0  0  0  0  0
    2.4376   -1.4722   27.8009 C   0  0  0  0  0  0  0  0  0  0  0  0
    1.7011   -0.4963   28.5339 C   0  0  0  0  0  0  0  0  0  0  0  0
    0.5704   -0.6987   29.4532 C   0  0  0  0  0  0  0  0  0  0  0  0
    0.5063   -0.0158   30.6786 C   0  0  0  0  0  0  0  0  0  0  0  0
   -0.5652   -0.2134   31.5621 C   0  0  0  0  0  0  0  0  0  0  0  0
   -1.5992   -1.0831   31.2245 C   0  0  0  0  0  0  0  0  0  0  0  0
   -1.5553   -1.7548   30.0045 C   0  0  0  0  0  0  0  0  0  0  0  0
   -0.4775   -1.5701   29.1270 C   0  0  0  0  0  0  0  0  0  0  0  0
    2.2075    0.7220   28.2842 N   0  0  0  0  0  0  0  0  0  0  0  0
    3.2336    0.5500   27.3643 O   0  0  0  0  0  0  0  0  0  0  0  0
    5.0178    0.8865   20.7499 H   0  0  0  0  0  0  0  0  0  0  0  0
    4.5851    1.2671   22.5451 H   0  0  0  0  0  0  0  0  0  0  0  0
    3.4104    1.0509   21.2778 H   0  0  0  0  0  0  0  0  0  0  0  0
    7.2038   -1.6495   20.9424 H   0  0  0  0  0  0  0  0  0  0  0  0
    5.8871   -2.1018   20.4262 H   0  0  0  0  0  0  0  0  0  0  0  0
    8.4663   -0.2263   19.7034 H   0  0  0  0  0  0  0  0  0  0  0  0
    7.2525    0.9487   19.7390 H   0  0  0  0  0  0  0  0  0  0  0  0
    7.5764    1.4100   17.9845 H   0  0  0  0  0  0  0  0  0  0  0  0
    6.8666   -0.2298   17.3490 H   0  0  0  0  0  0  0  0  0  0  0  0
   10.8528   -1.1461   14.9824 H   0  0  0  0  0  0  0  0  0  0  0  0
   10.4216    1.5385   14.4667 H   0  0  0  0  0  0  0  0  0  0  0  0
    8.7198    2.2416   16.2306 H   0  0  0  0  0  0  0  0  0  0  0  0
    5.3638   -2.1791   23.6477 H   0  0  0  0  0  0  0  0  0  0  0  0
    3.7443   -1.8638   23.3490 H   0  0  0  0  0  0  0  0  0  0  0  0
    5.4314    0.2743   24.8064 H   0  0  0  0  0  0  0  0  0  0  0  0
    3.7079    0.2683   24.6975 H   0  0  0  0  0  0  0  0  0  0  0  0
    4.3817   -2.2521   25.8967 H   0  0  0  0  0  0  0  0  0  0  0  0
    5.4285   -1.0577   26.6266 H   0  0  0  0  0  0  0  0  0  0  0  0
    2.2994   -2.5416   27.8144 H   0  0  0  0  0  0  0  0  0  0  0  0
    1.2997    0.6780   30.9528 H   0  0  0  0  0  0  0  0  0  0  0  0
   -0.5860    0.3209   32.5083 H   0  0  0  0  0  0  0  0  0  0  0  0
   -2.4343   -1.2312   31.9029 H   0  0  0  0  0  0  0  0  0  0  0  0
   -2.3605   -2.4214   29.7121 H   0  0  0  0  0  0  0  0  0  0  0  0
   -0.4893   -2.0858   28.1688 H   0  0  0  0  0  0  0  0  0  0  0  0
  1  2  1  0
  2  3  1  0
  3  4  1  0
  4  5  1  0
  5  6  1  0
  6  7  2  0
  7  8  1  0
  8  9  2  0
  9 10  1  0
  2 11  1  0
 11 12  1  0
 12 13  1  0
 13 14  1  0
 14 15  2  0
 15 16  1  0
 16 17  1  0
 17 18  2  0
 18 19  1  0
 19 20  2  0
 20 21  1  0
 21 22  2  0
 16 23  2  0
 23 24  1  0
 10  6  1  0
 24 14  1  0
 22 17  1  0
  1 25  1  0
  1 26  1  0
  1 27  1  0
  3 28  1  0
  3 29  1  0
  4 30  1  0
  4 31  1  0
  5 32  1  0
  5 33  1  0
  8 34  1  0
  9 35  1  0
 10 36  1  0
 11 37  1  0
 11 38  1  0
 12 39  1  0
 12 40  1  0
 13 41  1  0
 13 42  1  0
 15 43  1  0
 18 44  1  0
 19 45  1  0
 20 46  1  0
 21 47  1  0
 22 48  1  0
M  END
>  <Energy>  (355) 
269.22897224932569

>  <compound_id>  (355) 
54353

>  <target_id>  (355) 
1

>  <reference_id>  (355) 
59

>  <inspiration_ids>  (355) 
[59, 80]

>  <energy_score>  (355) 
194.91317839751684

>  <distance_score>  (355) 
4.372953657156778

>  <path>  (355) 
/opt/xchem-fragalysis-2/maxwin/BulkDock/SCRATCH/511020/C54353-P59/C54353-P59.minimised.mol

>  <scratch_subdir>  (355) 
/opt/xchem-fragalysis-2/maxwin/BulkDock/SCRATCH/511020/C54353-P59

>  <fragmenstein_runtime>  (355) 
9.25495195388794

>  <fragmenstein_outcome>  (355) 
too moved

>  <fragmenstein_mode>  (355) 
expansion

>  <fragmenstein_error>  (355) 


$$$$
C54353-P80
     RDKit          3D

 48 50  0  0  0  0  0  0  0  0999 V2000
    3.3375    1.7450   22.6210 C   0  0  0  0  0  0  0  0  0  0  0  0
    4.6960    0.5615   22.4982 N   0  0  0  0  0  0  0  0  0  0  0  0
    5.4582    0.1098   21.3170 C   0  0  0  0  0  0  0  0  0  0  0  0
    7.1325   -0.0862   20.2595 C   0  0  0  0  0  0  0  0  0  0  0  0
    7.5158   -0.3254   18.7372 C   0  0  0  0  0  0  0  0  0  0  0  0
    8.3321    0.3928   17.3901 C   0  0  0  0  0  0  0  0  0  0  0  0
    8.9552    1.5537   17.2802 N   0  0  0  0  0  0  0  0  0  0  0  0
    9.6855    1.5067   16.1203 C   0  0  0  0  0  0  0  0  0  0  0  0
    9.4778    0.3183   15.4721 C   0  0  0  0  0  0  0  0  0  0  0  0
    8.4985   -0.2998   16.1953 N   0  0  0  0  0  0  0  0  0  0  0  0
    4.7701   -0.6502   23.9479 C   0  0  0  0  0  0  0  0  0  0  0  0
    3.9266   -0.7323   25.3339 C   0  0  0  0  0  0  0  0  0  0  0  0
    3.6243    0.4538   26.2550 C   0  0  0  0  0  0  0  0  0  0  0  0
    2.5246    0.2385   27.2828 C   0  0  0  0  0  0  0  0  0  0  0  0
    2.0323   -0.7816   28.0771 C   0  0  0  0  0  0  0  0  0  0  0  0
    0.9263   -0.2174   28.8015 C   0  0  0  0  0  0  0  0  0  0  0  0
    0.0308   -0.8018   29.8238 C   0  0  0  0  0  0  0  0  0  0  0  0
    0.3314   -2.0027   30.4779 C   0  0  0  0  0  0  0  0  0  0  0  0
   -0.4994   -2.4956   31.4990 C   0  0  0  0  0  0  0  0  0  0  0  0
   -1.6444   -1.7988   31.8836 C   0  0  0  0  0  0  0  0  0  0  0  0
   -1.9681   -0.6113   31.2378 C   0  0  0  0  0  0  0  0  0  0  0  0
   -1.1423   -0.1245   30.2154 C   0  0  0  0  0  0  0  0  0  0  0  0
    0.7749    1.0655   28.4342 N   0  0  0  0  0  0  0  0  0  0  0  0
    1.7595    1.3441   27.5188 O   0  0  0  0  0  0  0  0  0  0  0  0
    2.6920    1.6213   21.7468 H   0  0  0  0  0  0  0  0  0  0  0  0
    3.5340    2.8314   22.6967 H   0  0  0  0  0  0  0  0  0  0  0  0
    2.8679    1.6508   23.6120 H   0  0  0  0  0  0  0  0  0  0  0  0
    6.1584    0.8957   21.7663 H   0  0  0  0  0  0  0  0  0  0  0  0
    5.3834   -0.9977   21.5924 H   0  0  0  0  0  0  0  0  0  0  0  0
    6.4312    0.1403   19.5057 H   0  0  0  0  0  0  0  0  0  0  0  0
    7.2688   -1.0778   20.6288 H   0  0  0  0  0  0  0  0  0  0  0  0
    8.2854   -0.9784   19.0387 H   0  0  0  0  0  0  0  0  0  0  0  0
    6.6190   -0.7895   18.2515 H   0  0  0  0  0  0  0  0  0  0  0  0
   10.3327    2.3254   15.8341 H   0  0  0  0  0  0  0  0  0  0  0  0
    9.8661   -0.0936   14.5498 H   0  0  0  0  0  0  0  0  0  0  0  0
    8.0548   -1.1681   15.9392 H   0  0  0  0  0  0  0  0  0  0  0  0
    5.6918   -1.1336   24.1593 H   0  0  0  0  0  0  0  0  0  0  0  0
    4.4493   -1.5833   23.4353 H   0  0  0  0  0  0  0  0  0  0  0  0
    4.4703   -1.4630   25.9518 H   0  0  0  0  0  0  0  0  0  0  0  0
    2.9968   -1.2519   25.1147 H   0  0  0  0  0  0  0  0  0  0  0  0
    3.3043    1.3088   25.6564 H   0  0  0  0  0  0  0  0  0  0  0  0
    4.5381    0.7502   26.7826 H   0  0  0  0  0  0  0  0  0  0  0  0
    2.4130   -1.7904   28.1216 H   0  0  0  0  0  0  0  0  0  0  0  0
    1.2308   -2.5585   30.2248 H   0  0  0  0  0  0  0  0  0  0  0  0
   -0.2321   -3.4179   32.0100 H   0  0  0  0  0  0  0  0  0  0  0  0
   -2.2657   -2.1729   32.6939 H   0  0  0  0  0  0  0  0  0  0  0  0
   -2.8511   -0.0521   31.5305 H   0  0  0  0  0  0  0  0  0  0  0  0
   -1.4135    0.8140   29.7325 H   0  0  0  0  0  0  0  0  0  0  0  0
  1  2  1  0
  2  3  1  0
  3  4  1  0
  4  5  1  0
  5  6  1  0
  6  7  2  0
  7  8  1  0
  8  9  2  0
  9 10  1  0
  2 11  1  0
 11 12  1  0
 12 13  1  0
 13 14  1  0
 14 15  2  0
 15 16  1  0
 16 17  1  0
 17 18  2  0
 18 19  1  0
 19 20  2  0
 20 21  1  0
 21 22  2  0
 16 23  2  0
 23 24  1  0
 10  6  1  0
 24 14  1  0
 22 17  1  0
  1 25  1  0
  1 26  1  0
  1 27  1  0
  3 28  1  0
  3 29  1  0
  4 30  1  0
  4 31  1  0
  5 32  1  0
  5 33  1  0
  8 34  1  0
  9 35  1  0
 10 36  1  0
 11 37  1  0
 11 38  1  0
 12 39  1  0
 12 40  1  0
 13 41  1  0
 13 42  1  0
 15 43  1  0
 18 44  1  0
 19 45  1  0
 20 46  1  0
 21 47  1  0
 22 48  1  0
M  END
>  <Energy>  (356) 
408.94296058406718

>  <compound_id>  (356) 
54353

>  <target_id>  (356) 
1

>  <reference_id>  (356) 
80

>  <inspiration_ids>  (356) 
[59, 80]

>  <energy_score>  (356) 
334.6271667322479

>  <distance_score>  (356) 
4.3408349752644

>  <path>  (356) 
/opt/xchem-fragalysis-2/maxwin/BulkDock/SCRATCH/511020/C54353-P80/C54353-P80.minimised.mol

>  <scratch_subdir>  (356) 
/opt/xchem-fragalysis-2/maxwin/BulkDock/SCRATCH/511020/C54353-P80

>  <fragmenstein_runtime>  (356) 
10.225292921066284

>  <fragmenstein_outcome>  (356) 
too moved

>  <fragmenstein_mode>  (356) 
expansion

>  <fragmenstein_error>  (356) 


$$$$
C54354-P59
     RDKit          3D

 52 54  0  0  0  0  0  0  0  0999 V2000
    6.8830    1.0452   27.5391 C   0  0  0  0  0  0  0  0  0  0  0  0
    6.7499   -0.3363   26.8598 C   0  0  0  0  0  0  0  0  0  0  0  0
    5.5938   -0.2963   25.8463 C   0  0  0  0  0  0  0  0  0  0  0  0
    6.2369   -1.3967   28.0722 C   0  0  0  0  0  0  0  0  0  0  0  0
    6.9761   -2.2768   28.3855 O   0  0  0  0  0  0  0  0  0  0  0  0
    4.7396   -1.0224   28.6304 N   0  0  0  0  0  0  0  0  0  0  0  0
    3.8952   -1.6604   29.8165 C   0  0  0  0  0  0  0  0  0  0  0  0
    2.2017   -1.2919   29.9873 C   0  0  0  0  0  0  0  0  0  0  0  0
    1.4997   -1.3710   31.3110 N   0  0  0  0  0  0  0  0  0  0  0  0
    0.1002   -1.8625   31.3035 C   0  0  0  0  0  0  0  0  0  0  0  0
   -0.7439   -1.1366   30.3253 C   0  0  0  0  0  0  0  0  0  0  0  0
   -1.1596   -1.5864   29.0508 C   0  0  0  0  0  0  0  0  0  0  0  0
   -1.7509   -0.4895   28.4921 C   0  0  0  0  0  0  0  0  0  0  0  0
   -1.7561    0.5241   29.3862 O   0  0  0  0  0  0  0  0  0  0  0  0
   -1.1611    0.1116   30.5648 N   0  0  0  0  0  0  0  0  0  0  0  0
    4.1599   -3.1836   29.8212 C   0  0  0  0  0  0  0  0  0  0  0  0
    3.4819   -4.0118   30.9089 C   0  0  0  0  0  0  0  0  0  0  0  0
    3.7539   -5.4406   30.4569 C   0  0  0  0  0  0  0  0  0  0  0  0
    3.6514   -5.3941   28.9336 C   0  0  0  0  0  0  0  0  0  0  0  0
    3.7337   -3.9163   28.5421 C   0  0  0  0  0  0  0  0  0  0  0  0
    8.2569   -0.5776   26.0238 C   0  0  0  0  0  0  0  0  0  0  0  0
    9.1953   -1.6081   25.9609 C   0  0  0  0  0  0  0  0  0  0  0  0
   10.3235   -1.1338   25.2910 N   0  0  0  0  0  0  0  0  0  0  0  0
   10.0703    0.1595   24.9238 C   0  0  0  0  0  0  0  0  0  0  0  0
    8.8471    0.4972   25.2899 N   0  0  0  0  0  0  0  0  0  0  0  0
    7.7015    1.0334   28.2678 H   0  0  0  0  0  0  0  0  0  0  0  0
    7.0972    1.8327   26.8081 H   0  0  0  0  0  0  0  0  0  0  0  0
    5.9746    1.3367   28.0747 H   0  0  0  0  0  0  0  0  0  0  0  0
    5.7549    0.4465   25.0673 H   0  0  0  0  0  0  0  0  0  0  0  0
    5.4457   -1.2832   25.3960 H   0  0  0  0  0  0  0  0  0  0  0  0
    4.6354   -0.0178   26.2911 H   0  0  0  0  0  0  0  0  0  0  0  0
    4.4224   -0.1607   28.2056 H   0  0  0  0  0  0  0  0  0  0  0  0
    4.3595   -1.2218   30.7089 H   0  0  0  0  0  0  0  0  0  0  0  0
    2.1057   -0.2589   29.6323 H   0  0  0  0  0  0  0  0  0  0  0  0
    1.7051   -1.9336   29.2528 H   0  0  0  0  0  0  0  0  0  0  0  0
    2.0479   -1.9238   31.9651 H   0  0  0  0  0  0  0  0  0  0  0  0
    0.0990   -2.9359   31.0807 H   0  0  0  0  0  0  0  0  0  0  0  0
   -0.3130   -1.7458   32.3118 H   0  0  0  0  0  0  0  0  0  0  0  0
   -0.9903   -2.5407   28.5748 H   0  0  0  0  0  0  0  0  0  0  0  0
   -2.1933   -0.2770   27.5304 H   0  0  0  0  0  0  0  0  0  0  0  0
    5.2425   -3.3288   29.9410 H   0  0  0  0  0  0  0  0  0  0  0  0
    3.8855   -3.8098   31.9051 H   0  0  0  0  0  0  0  0  0  0  0  0
    2.4001   -3.8598   30.9290 H   0  0  0  0  0  0  0  0  0  0  0  0
    3.0522   -6.1555   30.8970 H   0  0  0  0  0  0  0  0  0  0  0  0
    4.7665   -5.7413   30.7515 H   0  0  0  0  0  0  0  0  0  0  0  0
    4.4589   -5.9745   28.4748 H   0  0  0  0  0  0  0  0  0  0  0  0
    2.7039   -5.8234   28.5910 H   0  0  0  0  0  0  0  0  0  0  0  0
    4.4427   -3.7645   27.7221 H   0  0  0  0  0  0  0  0  0  0  0  0
    2.7528   -3.5792   28.1908 H   0  0  0  0  0  0  0  0  0  0  0  0
    9.1808   -2.6044   26.3809 H   0  0  0  0  0  0  0  0  0  0  0  0
   11.1620   -1.6546   25.0725 H   0  0  0  0  0  0  0  0  0  0  0  0
   10.7779    0.7697   24.3796 H   0  0  0  0  0  0  0  0  0  0  0  0
  1  2  1  0
  2  3  1  0
  2  4  1  0
  4  5  2  0
  4  6  1  0
  6  7  1  0
  7  8  1  0
  8  9  1  0
  9 10  1  0
 10 11  1  0
 11 12  1  0
 12 13  2  0
 13 14  1  0
 14 15  1  0
  7 16  1  0
 16 17  1  0
 17 18  1  0
 18 19  1  0
 19 20  1  0
  2 21  1  0
 21 22  2  0
 22 23  1  0
 23 24  1  0
 24 25  2  0
 15 11  2  0
 20 16  1  0
 25 21  1  0
  1 26  1  0
  1 27  1  0
  1 28  1  0
  3 29  1  0
  3 30  1  0
  3 31  1  0
  6 32  1  0
  7 33  1  0
  8 34  1  0
  8 35  1  0
  9 36  1  0
 10 37  1  0
 10 38  1  0
 12 39  1  0
 13 40  1  0
 16 41  1  0
 17 42  1  0
 17 43  1  0
 18 44  1  0
 18 45  1  0
 19 46  1  0
 19 47  1  0
 20 48  1  0
 20 49  1  0
 22 50  1  0
 23 51  1  0
 24 52  1  0
M  END
>  <Energy>  (357) 
137.33685062726835

>  <compound_id>  (357) 
54354

>  <target_id>  (357) 
1

>  <reference_id>  (357) 
59

>  <inspiration_ids>  (357) 
[59, 80]

>  <energy_score>  (357) 
42.500316828842074

>  <distance_score>  (357) 
8.270077337308715

>  <path>  (357) 
/opt/xchem-fragalysis-2/maxwin/BulkDock/SCRATCH/511020/C54354-P59/C54354-P59.minimised.mol

>  <scratch_subdir>  (357) 
/opt/xchem-fragalysis-2/maxwin/BulkDock/SCRATCH/511020/C54354-P59

>  <fragmenstein_runtime>  (357) 
12.662283658981323

>  <fragmenstein_outcome>  (357) 
too moved

>  <fragmenstein_mode>  (357) 
expansion

>  <fragmenstein_error>  (357) 


$$$$
C54354-P80
     RDKit          3D

 52 54  0  0  0  0  0  0  0  0999 V2000
    5.5097    0.2297   27.4760 C   0  0  0  0  0  0  0  0  0  0  0  0
    4.4520   -0.8943   27.3528 C   0  0  0  0  0  0  0  0  0  0  0  0
    4.8021   -1.9201   28.4410 C   0  0  0  0  0  0  0  0  0  0  0  0
    3.0012   -0.1837   27.5792 C   0  0  0  0  0  0  0  0  0  0  0  0
    2.8685    0.9163   27.1730 O   0  0  0  0  0  0  0  0  0  0  0  0
    1.9818   -1.1215   28.3564 N   0  0  0  0  0  0  0  0  0  0  0  0
    0.5322   -0.9105   28.7052 C   0  0  0  0  0  0  0  0  0  0  0  0
    0.0248   -1.7205   30.0127 C   0  0  0  0  0  0  0  0  0  0  0  0
   -1.4546   -1.8355   30.1307 N   0  0  0  0  0  0  0  0  0  0  0  0
   -1.9087   -2.0582   31.5043 C   0  0  0  0  0  0  0  0  0  0  0  0
   -1.5832   -0.8176   32.2330 C   0  0  0  0  0  0  0  0  0  0  0  0
   -1.9227    0.4898   31.8332 C   0  0  0  0  0  0  0  0  0  0  0  0
   -1.0370    1.2676   32.5226 C   0  0  0  0  0  0  0  0  0  0  0  0
   -0.2909    0.5003   33.3452 O   0  0  0  0  0  0  0  0  0  0  0  0
   -0.6639   -0.8180   33.2021 N   0  0  0  0  0  0  0  0  0  0  0  0
    0.0879    0.5709   28.8256 C   0  0  0  0  0  0  0  0  0  0  0  0
    1.0096    1.5155   29.6067 C   0  0  0  0  0  0  0  0  0  0  0  0
    0.8089    2.9038   28.9932 C   0  0  0  0  0  0  0  0  0  0  0  0
   -0.2739    2.7537   27.9320 C   0  0  0  0  0  0  0  0  0  0  0  0
   -0.1910    1.2961   27.5117 C   0  0  0  0  0  0  0  0  0  0  0  0
    4.5007   -1.5086   25.9517 C   0  0  0  0  0  0  0  0  0  0  0  0
    3.6459   -2.4610   25.5059 C   0  0  0  0  0  0  0  0  0  0  0  0
    3.7327   -2.4346   24.1689 N   0  0  0  0  0  0  0  0  0  0  0  0
    4.8448   -1.7578   23.8704 C   0  0  0  0  0  0  0  0  0  0  0  0
    5.3447   -1.2281   24.9370 N   0  0  0  0  0  0  0  0  0  0  0  0
    5.3612    1.0155   26.7297 H   0  0  0  0  0  0  0  0  0  0  0  0
    5.4569    0.7093   28.4607 H   0  0  0  0  0  0  0  0  0  0  0  0
    6.5265   -0.1586   27.3455 H   0  0  0  0  0  0  0  0  0  0  0  0
    4.1860   -2.8194   28.3801 H   0  0  0  0  0  0  0  0  0  0  0  0
    5.8435   -2.2525   28.3540 H   0  0  0  0  0  0  0  0  0  0  0  0
    4.6669   -1.4958   29.4424 H   0  0  0  0  0  0  0  0  0  0  0  0
    2.3917   -2.0342   28.4838 H   0  0  0  0  0  0  0  0  0  0  0  0
   -0.0017   -1.3559   27.8573 H   0  0  0  0  0  0  0  0  0  0  0  0
    0.4385   -2.7356   29.9615 H   0  0  0  0  0  0  0  0  0  0  0  0
    0.5038   -1.2426   30.8724 H   0  0  0  0  0  0  0  0  0  0  0  0
   -1.7755   -2.5761   29.5072 H   0  0  0  0  0  0  0  0  0  0  0  0
   -1.4362   -2.9459   31.9386 H   0  0  0  0  0  0  0  0  0  0  0  0
   -2.9919   -2.2152   31.5124 H   0  0  0  0  0  0  0  0  0  0  0  0
   -2.5772    0.7836   31.0291 H   0  0  0  0  0  0  0  0  0  0  0  0
   -0.7747    2.3134   32.5319 H   0  0  0  0  0  0  0  0  0  0  0  0
   -0.8818    0.5817   29.3345 H   0  0  0  0  0  0  0  0  0  0  0  0
    0.7593    1.5226   30.6673 H   0  0  0  0  0  0  0  0  0  0  0  0
    2.0652    1.2399   29.5637 H   0  0  0  0  0  0  0  0  0  0  0  0
    0.5313    3.6474   29.7470 H   0  0  0  0  0  0  0  0  0  0  0  0
    1.7440    3.2398   28.5301 H   0  0  0  0  0  0  0  0  0  0  0  0
   -1.2589    2.9612   28.3623 H   0  0  0  0  0  0  0  0  0  0  0  0
   -0.1270    3.4381   27.0913 H   0  0  0  0  0  0  0  0  0  0  0  0
   -1.1215    0.9568   27.0452 H   0  0  0  0  0  0  0  0  0  0  0  0
    0.6094    1.1713   26.7896 H   0  0  0  0  0  0  0  0  0  0  0  0
    2.8601   -2.9623   26.0373 H   0  0  0  0  0  0  0  0  0  0  0  0
    3.0270   -2.7870   23.5385 H   0  0  0  0  0  0  0  0  0  0  0  0
    5.1529   -1.6853   22.8596 H   0  0  0  0  0  0  0  0  0  0  0  0
  1  2  1  0
  2  3  1  0
  2  4  1  0
  4  5  2  0
  4  6  1  0
  6  7  1  0
  7  8  1  0
  8  9  1  0
  9 10  1  0
 10 11  1  0
 11 12  1  0
 12 13  2  0
 13 14  1  0
 14 15  1  0
  7 16  1  0
 16 17  1  0
 17 18  1  0
 18 19  1  0
 19 20  1  0
  2 21  1  0
 21 22  2  0
 22 23  1  0
 23 24  1  0
 24 25  2  0
 15 11  2  0
 20 16  1  0
 25 21  1  0
  1 26  1  0
  1 27  1  0
  1 28  1  0
  3 29  1  0
  3 30  1  0
  3 31  1  0
  6 32  1  0
  7 33  1  0
  8 34  1  0
  8 35  1  0
  9 36  1  0
 10 37  1  0
 10 38  1  0
 12 39  1  0
 13 40  1  0
 16 41  1  0
 17 42  1  0
 17 43  1  0
 18 44  1  0
 18 45  1  0
 19 46  1  0
 19 47  1  0
 20 48  1  0
 20 49  1  0
 22 50  1  0
 23 51  1  0
 24 52  1  0
M  END
>  <Energy>  (358) 
109.51388459272849

>  <compound_id>  (358) 
54354

>  <target_id>  (358) 
1

>  <reference_id>  (358) 
80

>  <inspiration_ids>  (358) 
[59, 80]

>  <energy_score>  (358) 
14.67735079429815

>  <distance_score>  (358) 
8.56388184555872

>  <path>  (358) 
/opt/xchem-fragalysis-2/maxwin/BulkDock/SCRATCH/511020/C54354-P80/C54354-P80.minimised.mol

>  <scratch_subdir>  (358) 
/opt/xchem-fragalysis-2/maxwin/BulkDock/SCRATCH/511020/C54354-P80

>  <fragmenstein_runtime>  (358) 
16.213889122009277

>  <fragmenstein_outcome>  (358) 
too moved

>  <fragmenstein_mode>  (358) 
expansion

>  <fragmenstein_error>  (358) 


$$$$
C54355-P59
     RDKit          3D

 46 48  0  0  0  0  0  0  0  0999 V2000
    5.5555   -2.3976   28.4671 C   0  0  0  0  0  0  0  0  0  0  0  0
    4.4310   -2.4587   27.4203 C   0  0  0  0  0  0  0  0  0  0  0  0
    4.0647   -3.9317   27.1561 C   0  0  0  0  0  0  0  0  0  0  0  0
    3.1283   -1.6334   28.0383 C   0  0  0  0  0  0  0  0  0  0  0  0
    2.8791   -0.5659   27.6022 O   0  0  0  0  0  0  0  0  0  0  0  0
    2.4668   -2.4320   29.2482 N   0  0  0  0  0  0  0  0  0  0  0  0
    1.4050   -2.0082   30.2383 C   0  0  0  0  0  0  0  0  0  0  0  0
   -0.1097   -2.5913   30.1187 C   0  0  0  0  0  0  0  0  0  0  0  0
   -1.2709   -2.3137   31.0103 N   0  0  0  0  0  0  0  0  0  0  0  0
   -1.0321   -1.6380   32.2685 C   0  0  0  0  0  0  0  0  0  0  0  0
   -0.5208   -0.2822   31.9715 C   0  0  0  0  0  0  0  0  0  0  0  0
   -0.9052    0.5681   30.9200 C   0  0  0  0  0  0  0  0  0  0  0  0
    0.0713    1.5236   30.8783 C   0  0  0  0  0  0  0  0  0  0  0  0
    0.9196    1.3333   31.9117 O   0  0  0  0  0  0  0  0  0  0  0  0
    0.5364    0.2100   32.6235 N   0  0  0  0  0  0  0  0  0  0  0  0
   -0.5729   -2.3597   28.6837 C   0  0  0  0  0  0  0  0  0  0  0  0
   -1.7629   -1.5187   28.2495 C   0  0  0  0  0  0  0  0  0  0  0  0
   -0.3827   -0.9960   28.0477 C   0  0  0  0  0  0  0  0  0  0  0  0
    4.9595   -1.8057   26.0599 C   0  0  0  0  0  0  0  0  0  0  0  0
    5.3738   -0.5000   25.8252 C   0  0  0  0  0  0  0  0  0  0  0  0
    4.9548   -0.2679   24.5501 N   0  0  0  0  0  0  0  0  0  0  0  0
    4.7375   -1.4950   24.0023 C   0  0  0  0  0  0  0  0  0  0  0  0
    4.8599   -2.4615   24.8612 N   0  0  0  0  0  0  0  0  0  0  0  0
    5.8034   -1.3599   28.7186 H   0  0  0  0  0  0  0  0  0  0  0  0
    6.4689   -2.8780   28.0979 H   0  0  0  0  0  0  0  0  0  0  0  0
    5.2676   -2.8944   29.3997 H   0  0  0  0  0  0  0  0  0  0  0  0
    4.8799   -4.4585   26.6456 H   0  0  0  0  0  0  0  0  0  0  0  0
    3.8622   -4.4878   28.0760 H   0  0  0  0  0  0  0  0  0  0  0  0
    3.1740   -4.0093   26.5267 H   0  0  0  0  0  0  0  0  0  0  0  0
    2.9763   -3.2888   29.4075 H   0  0  0  0  0  0  0  0  0  0  0  0
    1.7987   -2.2823   31.2228 H   0  0  0  0  0  0  0  0  0  0  0  0
    1.3980   -0.9215   30.1637 H   0  0  0  0  0  0  0  0  0  0  0  0
    0.0434   -3.6765   30.2083 H   0  0  0  0  0  0  0  0  0  0  0  0
   -1.7778   -3.1781   31.1588 H   0  0  0  0  0  0  0  0  0  0  0  0
   -1.9741   -1.5522   32.8212 H   0  0  0  0  0  0  0  0  0  0  0  0
   -0.3367   -2.2138   32.8892 H   0  0  0  0  0  0  0  0  0  0  0  0
   -1.7152    0.4439   30.2232 H   0  0  0  0  0  0  0  0  0  0  0  0
    0.2886    2.3654   30.2362 H   0  0  0  0  0  0  0  0  0  0  0  0
   -0.3378   -3.2195   28.0661 H   0  0  0  0  0  0  0  0  0  0  0  0
   -2.4051   -1.0908   29.0002 H   0  0  0  0  0  0  0  0  0  0  0  0
   -2.2979   -1.7799   27.3441 H   0  0  0  0  0  0  0  0  0  0  0  0
   -0.0467   -0.1509   28.6233 H   0  0  0  0  0  0  0  0  0  0  0  0
    0.0221   -0.9552   27.0503 H   0  0  0  0  0  0  0  0  0  0  0  0
    5.5804    0.3163   26.5020 H   0  0  0  0  0  0  0  0  0  0  0  0
    4.8278    0.6137   24.0714 H   0  0  0  0  0  0  0  0  0  0  0  0
    4.5217   -1.6068   22.9716 H   0  0  0  0  0  0  0  0  0  0  0  0
  1  2  1  0
  2  3  1  0
  2  4  1  0
  4  5  2  0
  4  6  1  0
  6  7  1  0
  7  8  1  0
  8  9  1  0
  9 10  1  0
 10 11  1  0
 11 12  1  0
 12 13  2  0
 13 14  1  0
 14 15  1  0
  8 16  1  0
 16 17  1  0
 17 18  1  0
  2 19  1  0
 19 20  2  0
 20 21  1  0
 21 22  1  0
 22 23  2  0
 15 11  2  0
 18 16  1  0
 23 19  1  0
  1 24  1  0
  1 25  1  0
  1 26  1  0
  3 27  1  0
  3 28  1  0
  3 29  1  0
  6 30  1  0
  7 31  1  0
  7 32  1  0
  8 33  1  0
  9 34  1  0
 10 35  1  0
 10 36  1  0
 12 37  1  0
 13 38  1  0
 16 39  1  0
 17 40  1  0
 17 41  1  0
 18 42  1  0
 18 43  1  0
 20 44  1  0
 21 45  1  0
 22 46  1  0
M  END
>  <Energy>  (359) 
119.28559324498744

>  <compound_id>  (359) 
54355

>  <target_id>  (359) 
1

>  <reference_id>  (359) 
59

>  <inspiration_ids>  (359) 
[59, 80]

>  <energy_score>  (359) 
10.095415375668608

>  <distance_score>  (359) 
8.298610664360101

>  <path>  (359) 
/opt/xchem-fragalysis-2/maxwin/BulkDock/SCRATCH/511020/C54355-P59/C54355-P59.minimised.mol

>  <scratch_subdir>  (359) 
/opt/xchem-fragalysis-2/maxwin/BulkDock/SCRATCH/511020/C54355-P59

>  <fragmenstein_runtime>  (359) 
7.751211166381836

>  <fragmenstein_outcome>  (359) 
too moved

>  <fragmenstein_mode>  (359) 
expansion

>  <fragmenstein_error>  (359) 


$$$$
C54355-P80
     RDKit          3D

 46 48  0  0  0  0  0  0  0  0999 V2000
    2.1278    0.8667   28.3952 C   0  0  0  0  0  0  0  0  0  0  0  0
    3.2874   -0.0083   28.9222 C   0  0  0  0  0  0  0  0  0  0  0  0
    4.1874    0.8555   29.8307 C   0  0  0  0  0  0  0  0  0  0  0  0
    2.7227   -1.2471   29.7827 C   0  0  0  0  0  0  0  0  0  0  0  0
    3.0980   -2.3560   29.5244 O   0  0  0  0  0  0  0  0  0  0  0  0
    1.8274   -0.7712   30.8220 N   0  0  0  0  0  0  0  0  0  0  0  0
    1.1870   -1.4731   31.9250 C   0  0  0  0  0  0  0  0  0  0  0  0
    0.1922   -2.5943   31.4673 C   0  0  0  0  0  0  0  0  0  0  0  0
   -1.2049   -2.5253   31.9525 N   0  0  0  0  0  0  0  0  0  0  0  0
   -1.8578   -1.2159   31.8446 C   0  0  0  0  0  0  0  0  0  0  0  0
   -1.6506   -0.5228   30.5392 C   0  0  0  0  0  0  0  0  0  0  0  0
   -1.6957   -1.0351   29.2196 C   0  0  0  0  0  0  0  0  0  0  0  0
   -1.4016    0.0420   28.4296 C   0  0  0  0  0  0  0  0  0  0  0  0
   -1.2086    1.1338   29.2065 O   0  0  0  0  0  0  0  0  0  0  0  0
   -1.3617    0.7864   30.5363 N   0  0  0  0  0  0  0  0  0  0  0  0
    0.7932   -3.9586   31.7793 C   0  0  0  0  0  0  0  0  0  0  0  0
   -0.0199   -5.2020   32.0665 C   0  0  0  0  0  0  0  0  0  0  0  0
    0.7839   -4.5614   33.1663 C   0  0  0  0  0  0  0  0  0  0  0  0
    4.1146   -0.5021   27.7282 C   0  0  0  0  0  0  0  0  0  0  0  0
    5.2904   -1.2261   27.7210 C   0  0  0  0  0  0  0  0  0  0  0  0
    5.5074   -1.5342   26.4131 N   0  0  0  0  0  0  0  0  0  0  0  0
    4.5156   -0.9666   25.6763 C   0  0  0  0  0  0  0  0  0  0  0  0
    3.7201   -0.2452   26.4275 N   0  0  0  0  0  0  0  0  0  0  0  0
    2.4953    1.6615   27.7344 H   0  0  0  0  0  0  0  0  0  0  0  0
    1.5716    1.3656   29.1935 H   0  0  0  0  0  0  0  0  0  0  0  0
    1.4178    0.2605   27.8225 H   0  0  0  0  0  0  0  0  0  0  0  0
    3.6221    1.3372   30.6355 H   0  0  0  0  0  0  0  0  0  0  0  0
    4.9674    0.2489   30.3059 H   0  0  0  0  0  0  0  0  0  0  0  0
    4.6846    1.6482   29.2591 H   0  0  0  0  0  0  0  0  0  0  0  0
    1.7997    0.2390   30.7965 H   0  0  0  0  0  0  0  0  0  0  0  0
    1.9923   -1.8931   32.5381 H   0  0  0  0  0  0  0  0  0  0  0  0
    0.6927   -0.7078   32.5289 H   0  0  0  0  0  0  0  0  0  0  0  0
    0.1444   -2.5808   30.3727 H   0  0  0  0  0  0  0  0  0  0  0  0
   -1.2244   -2.7960   32.9352 H   0  0  0  0  0  0  0  0  0  0  0  0
   -1.5292   -0.5755   32.6722 H   0  0  0  0  0  0  0  0  0  0  0  0
   -2.9346   -1.3653   31.9880 H   0  0  0  0  0  0  0  0  0  0  0  0
   -1.8847   -2.0485   28.8962 H   0  0  0  0  0  0  0  0  0  0  0  0
   -1.2804    0.1941   27.3682 H   0  0  0  0  0  0  0  0  0  0  0  0
    1.7001   -4.1028   31.1928 H   0  0  0  0  0  0  0  0  0  0  0  0
    0.3387   -6.1382   31.6532 H   0  0  0  0  0  0  0  0  0  0  0  0
   -1.0985   -5.1358   32.1204 H   0  0  0  0  0  0  0  0  0  0  0  0
    1.6863   -5.0656   33.4961 H   0  0  0  0  0  0  0  0  0  0  0  0
    0.2499   -4.0608   33.9639 H   0  0  0  0  0  0  0  0  0  0  0  0
    5.8994   -1.6372   28.5118 H   0  0  0  0  0  0  0  0  0  0  0  0
    6.1506   -2.2384   26.0691 H   0  0  0  0  0  0  0  0  0  0  0  0
    4.4417   -1.1327   24.6146 H   0  0  0  0  0  0  0  0  0  0  0  0
  1  2  1  0
  2  3  1  0
  2  4  1  0
  4  5  2  0
  4  6  1  0
  6  7  1  0
  7  8  1  0
  8  9  1  0
  9 10  1  0
 10 11  1  0
 11 12  1  0
 12 13  2  0
 13 14  1  0
 14 15  1  0
  8 16  1  0
 16 17  1  0
 17 18  1  0
  2 19  1  0
 19 20  2  0
 20 21  1  0
 21 22  1  0
 22 23  2  0
 15 11  2  0
 18 16  1  0
 23 19  1  0
  1 24  1  0
  1 25  1  0
  1 26  1  0
  3 27  1  0
  3 28  1  0
  3 29  1  0
  6 30  1  0
  7 31  1  0
  7 32  1  0
  8 33  1  0
  9 34  1  0
 10 35  1  0
 10 36  1  0
 12 37  1  0
 13 38  1  0
 16 39  1  0
 17 40  1  0
 17 41  1  0
 18 42  1  0
 18 43  1  0
 20 44  1  0
 21 45  1  0
 22 46  1  0
M  END
>  <Energy>  (360) 
78.632771835170118

>  <compound_id>  (360) 
54355

>  <target_id>  (360) 
1

>  <reference_id>  (360) 
80

>  <inspiration_ids>  (360) 
[59, 80]

>  <energy_score>  (360) 
-32.778696807027586

>  <distance_score>  (360) 
8.577727078782727

>  <path>  (360) 
/opt/xchem-fragalysis-2/maxwin/BulkDock/SCRATCH/511020/C54355-P80/C54355-P80.minimised.mol

>  <scratch_subdir>  (360) 
/opt/xchem-fragalysis-2/maxwin/BulkDock/SCRATCH/511020/C54355-P80

>  <fragmenstein_runtime>  (360) 
20.500412225723267

>  <fragmenstein_outcome>  (360) 
too moved

>  <fragmenstein_mode>  (360) 
expansion

>  <fragmenstein_error>  (360) 


$$$$
C54358-P59
     RDKit          3D

 45 46  0  0  0  0  0  0  0  0999 V2000
    4.7422    0.8474   26.8797 C   0  0  0  0  0  0  0  0  0  0  0  0
    4.8873   -0.6570   26.6546 C   0  0  0  0  0  0  0  0  0  0  0  0
    3.9711   -1.4819   27.5864 C   0  0  0  0  0  0  0  0  0  0  0  0
    2.5927   -1.0478   27.6868 N   0  0  0  0  0  0  0  0  0  0  0  0
    1.4349   -1.7021   28.2402 C   0  0  0  0  0  0  0  0  0  0  0  0
    1.3000   -2.8037   28.6870 O   0  0  0  0  0  0  0  0  0  0  0  0
    0.2595   -0.7129   28.2191 C   0  0  0  0  0  0  0  0  0  0  0  0
   -1.0754   -1.3316   28.6416 C   0  0  0  0  0  0  0  0  0  0  0  0
   -1.2508   -1.3995   30.1177 C   0  0  0  0  0  0  0  0  0  0  0  0
   -0.9791   -2.4856   30.9775 C   0  0  0  0  0  0  0  0  0  0  0  0
   -1.3212   -2.0230   32.2190 C   0  0  0  0  0  0  0  0  0  0  0  0
   -1.7670   -0.7469   32.1216 O   0  0  0  0  0  0  0  0  0  0  0  0
   -1.7297   -0.3487   30.7980 N   0  0  0  0  0  0  0  0  0  0  0  0
    4.7963   -1.0425   25.2500 N   0  0  0  0  0  0  0  0  0  0  0  0
    4.9095   -0.2434   24.0258 C   0  0  0  0  0  0  0  0  0  0  0  0
    5.0250    0.9390   23.8763 O   0  0  0  0  0  0  0  0  0  0  0  0
    4.8906   -1.4446   22.6256 C   0  0  0  0  0  0  0  0  0  0  0  0
    3.6307   -2.0762   23.1227 O   0  0  0  0  0  0  0  0  0  0  0  0
    5.8528   -1.8266   20.7957 C   0  0  0  0  0  0  0  0  0  0  0  0
    6.9962   -0.5923   19.6575 C   0  0  0  0  0  0  0  0  0  0  0  0
    6.6950   -0.0374   18.2926 C   0  0  0  0  0  0  0  0  0  0  0  0
    7.5695    0.9280   17.9525 N   0  0  0  0  0  0  0  0  0  0  0  0
    8.3519    0.9903   19.0310 C   0  0  0  0  0  0  0  0  0  0  0  0
    8.3266   -0.1684   19.6949 N   0  0  0  0  0  0  0  0  0  0  0  0
    5.5642    1.3916   26.4021 H   0  0  0  0  0  0  0  0  0  0  0  0
    4.7703    1.0887   27.9475 H   0  0  0  0  0  0  0  0  0  0  0  0
    3.8066    1.2324   26.4608 H   0  0  0  0  0  0  0  0  0  0  0  0
    5.9170   -0.9259   26.9243 H   0  0  0  0  0  0  0  0  0  0  0  0
    4.3655   -1.4324   28.6084 H   0  0  0  0  0  0  0  0  0  0  0  0
    3.9674   -2.5403   27.3020 H   0  0  0  0  0  0  0  0  0  0  0  0
    2.3604   -0.0823   27.4818 H   0  0  0  0  0  0  0  0  0  0  0  0
    0.1548   -0.3412   27.1948 H   0  0  0  0  0  0  0  0  0  0  0  0
    0.5138    0.1406   28.8594 H   0  0  0  0  0  0  0  0  0  0  0  0
   -1.8894   -0.7249   28.2232 H   0  0  0  0  0  0  0  0  0  0  0  0
   -1.1880   -2.3323   28.2104 H   0  0  0  0  0  0  0  0  0  0  0  0
   -0.5768   -3.4535   30.7167 H   0  0  0  0  0  0  0  0  0  0  0  0
   -1.3074   -2.4404   33.2153 H   0  0  0  0  0  0  0  0  0  0  0  0
    4.7965   -2.0286   25.0044 H   0  0  0  0  0  0  0  0  0  0  0  0
    5.4173   -2.2537   23.1885 H   0  0  0  0  0  0  0  0  0  0  0  0
    3.1896   -1.3024   23.5061 H   0  0  0  0  0  0  0  0  0  0  0  0
    5.2967   -2.5841   20.1933 H   0  0  0  0  0  0  0  0  0  0  0  0
    6.5163   -2.7035   21.0946 H   0  0  0  0  0  0  0  0  0  0  0  0
    5.8891   -0.2719   17.6064 H   0  0  0  0  0  0  0  0  0  0  0  0
    7.4964    1.5923   17.1931 H   0  0  0  0  0  0  0  0  0  0  0  0
    8.9315    1.8809   19.2365 H   0  0  0  0  0  0  0  0  0  0  0  0
  1  2  1  0
  2  3  1  0
  3  4  1  0
  4  5  1  0
  5  6  2  0
  5  7  1  0
  7  8  1  0
  8  9  1  0
  9 10  1  0
 10 11  2  0
 11 12  1  0
 12 13  1  0
  2 14  1  0
 14 15  1  0
 15 16  2  0
 15 17  1  0
 17 18  1  0
 17 19  1  0
 19 20  1  0
 20 21  2  0
 21 22  1  0
 22 23  1  0
 23 24  2  0
 13  9  2  0
 24 20  1  0
  1 25  1  0
  1 26  1  0
  1 27  1  0
  2 28  1  0
  3 29  1  0
  3 30  1  0
  4 31  1  0
  7 32  1  0
  7 33  1  0
  8 34  1  0
  8 35  1  0
 10 36  1  0
 11 37  1  0
 14 38  1  0
 17 39  1  0
 18 40  1  0
 19 41  1  0
 19 42  1  0
 21 43  1  0
 22 44  1  0
 23 45  1  0
M  END
>  <Energy>  (361) 
285.42010218637984

>  <compound_id>  (361) 
54358

>  <target_id>  (361) 
1

>  <reference_id>  (361) 
59

>  <inspiration_ids>  (361) 
[59, 80]

>  <energy_score>  (361) 
240.813340303107

>  <distance_score>  (361) 
7.170806226809156

>  <path>  (361) 
/opt/xchem-fragalysis-2/maxwin/BulkDock/SCRATCH/511020/C54358-P59/C54358-P59.minimised.mol

>  <scratch_subdir>  (361) 
/opt/xchem-fragalysis-2/maxwin/BulkDock/SCRATCH/511020/C54358-P59

>  <fragmenstein_runtime>  (361) 
19.067620277404785

>  <fragmenstein_outcome>  (361) 
too moved

>  <fragmenstein_mode>  (361) 
expansion

>  <fragmenstein_error>  (361) 


$$$$
C54358-P80
     RDKit          3D

 45 46  0  0  0  0  0  0  0  0999 V2000
    4.3492   -0.8446   25.3403 C   0  0  0  0  0  0  0  0  0  0  0  0
    5.3248   -1.9842   25.6070 C   0  0  0  0  0  0  0  0  0  0  0  0
    6.2698   -1.6105   26.8267 C   0  0  0  0  0  0  0  0  0  0  0  0
    5.4893   -1.0576   27.9560 N   0  0  0  0  0  0  0  0  0  0  0  0
    4.4656   -1.6552   28.7823 C   0  0  0  0  0  0  0  0  0  0  0  0
    4.0437   -2.7744   28.8159 O   0  0  0  0  0  0  0  0  0  0  0  0
    3.8584   -0.5840   29.7015 C   0  0  0  0  0  0  0  0  0  0  0  0
    2.6981   -1.0934   30.5776 C   0  0  0  0  0  0  0  0  0  0  0  0
    1.3524   -1.0218   29.9320 C   0  0  0  0  0  0  0  0  0  0  0  0
    0.8345   -1.8036   28.8742 C   0  0  0  0  0  0  0  0  0  0  0  0
   -0.4523   -1.3597   28.7251 C   0  0  0  0  0  0  0  0  0  0  0  0
   -0.6970   -0.3690   29.6161 O   0  0  0  0  0  0  0  0  0  0  0  0
    0.4351   -0.1523   30.3831 N   0  0  0  0  0  0  0  0  0  0  0  0
    5.7840   -2.6018   24.1366 N   0  0  0  0  0  0  0  0  0  0  0  0
    7.2622   -3.6151   23.6564 C   0  0  0  0  0  0  0  0  0  0  0  0
    8.1049   -4.0632   24.3881 O   0  0  0  0  0  0  0  0  0  0  0  0
    7.7438   -3.9336   21.8373 C   0  0  0  0  0  0  0  0  0  0  0  0
    6.2332   -3.0809   21.1006 O   0  0  0  0  0  0  0  0  0  0  0  0
    9.0628   -4.4612   20.4510 C   0  0  0  0  0  0  0  0  0  0  0  0
   11.0097   -5.1391   20.5114 C   0  0  0  0  0  0  0  0  0  0  0  0
   12.1868   -5.1692   19.6414 C   0  0  0  0  0  0  0  0  0  0  0  0
   13.3869   -5.0861   20.3150 N   0  0  0  0  0  0  0  0  0  0  0  0
   13.1224   -4.5144   21.4997 C   0  0  0  0  0  0  0  0  0  0  0  0
   11.8327   -4.4235   21.6437 N   0  0  0  0  0  0  0  0  0  0  0  0
    4.7277   -0.2596   24.5257 H   0  0  0  0  0  0  0  0  0  0  0  0
    4.1538   -0.1780   26.1820 H   0  0  0  0  0  0  0  0  0  0  0  0
    3.3815   -1.2634   25.0541 H   0  0  0  0  0  0  0  0  0  0  0  0
    4.5477   -2.6809   25.9727 H   0  0  0  0  0  0  0  0  0  0  0  0
    6.8285   -2.4491   27.2487 H   0  0  0  0  0  0  0  0  0  0  0  0
    7.0226   -0.8608   26.5912 H   0  0  0  0  0  0  0  0  0  0  0  0
    5.5271   -0.0635   28.1436 H   0  0  0  0  0  0  0  0  0  0  0  0
    3.5358    0.2707   29.0952 H   0  0  0  0  0  0  0  0  0  0  0  0
    4.6682   -0.2506   30.3629 H   0  0  0  0  0  0  0  0  0  0  0  0
    2.8812   -2.1201   30.9166 H   0  0  0  0  0  0  0  0  0  0  0  0
    2.6765   -0.4781   31.4875 H   0  0  0  0  0  0  0  0  0  0  0  0
    1.3274   -2.5832   28.3101 H   0  0  0  0  0  0  0  0  0  0  0  0
   -1.2739   -1.6265   28.0777 H   0  0  0  0  0  0  0  0  0  0  0  0
    5.2842   -2.2827   23.2904 H   0  0  0  0  0  0  0  0  0  0  0  0
    7.6180   -5.0217   22.1817 H   0  0  0  0  0  0  0  0  0  0  0  0
    6.2070   -3.2915   20.1509 H   0  0  0  0  0  0  0  0  0  0  0  0
    9.2637   -3.4594   20.4104 H   0  0  0  0  0  0  0  0  0  0  0  0
    8.1782   -4.7016   19.9669 H   0  0  0  0  0  0  0  0  0  0  0  0
   12.2770   -4.8868   18.5985 H   0  0  0  0  0  0  0  0  0  0  0  0
   14.2955   -5.0725   19.8780 H   0  0  0  0  0  0  0  0  0  0  0  0
   13.8726   -4.1378   22.1809 H   0  0  0  0  0  0  0  0  0  0  0  0
  1  2  1  0
  2  3  1  0
  3  4  1  0
  4  5  1  0
  5  6  2  0
  5  7  1  0
  7  8  1  0
  8  9  1  0
  9 10  1  0
 10 11  2  0
 11 12  1  0
 12 13  1  0
  2 14  1  0
 14 15  1  0
 15 16  2  0
 15 17  1  0
 17 18  1  0
 17 19  1  0
 19 20  1  0
 20 21  2  0
 21 22  1  0
 22 23  1  0
 23 24  2  0
 13  9  2  0
 24 20  1  0
  1 25  1  0
  1 26  1  0
  1 27  1  0
  2 28  1  0
  3 29  1  0
  3 30  1  0
  4 31  1  0
  7 32  1  0
  7 33  1  0
  8 34  1  0
  8 35  1  0
 10 36  1  0
 11 37  1  0
 14 38  1  0
 17 39  1  0
 18 40  1  0
 19 41  1  0
 19 42  1  0
 21 43  1  0
 22 44  1  0
 23 45  1  0
M  END
>  <Energy>  (362) 
455.45821105064942

>  <compound_id>  (362) 
54358

>  <target_id>  (362) 
1

>  <reference_id>  (362) 
80

>  <inspiration_ids>  (362) 
[59, 80]

>  <energy_score>  (362) 
410.8514491673657

>  <distance_score>  (362) 
7.950985939648586

>  <path>  (362) 
/opt/xchem-fragalysis-2/maxwin/BulkDock/SCRATCH/511020/C54358-P80/C54358-P80.minimised.mol

>  <scratch_subdir>  (362) 
/opt/xchem-fragalysis-2/maxwin/BulkDock/SCRATCH/511020/C54358-P80

>  <fragmenstein_runtime>  (362) 
16.355403661727905

>  <fragmenstein_outcome>  (362) 
too moved

>  <fragmenstein_mode>  (362) 
expansion

>  <fragmenstein_error>  (362) 


$$$$
C54359-P59
     RDKit          3D

 47 48  0  0  0  0  0  0  0  0999 V2000
    4.6329    0.3851   28.9267 C   0  0  0  0  0  0  0  0  0  0  0  0
    3.8711    0.8860   27.6887 C   0  0  0  0  0  0  0  0  0  0  0  0
    2.9636    2.0710   28.0153 N   0  0  0  0  0  0  0  0  0  0  0  0
    4.1644    2.8563   27.4931 C   0  0  0  0  0  0  0  0  0  0  0  0
    4.0149    3.4674   26.0675 C   0  0  0  0  0  0  0  0  0  0  0  0
    4.2778    2.5870   24.9502 N   0  0  0  0  0  0  0  0  0  0  0  0
    4.5477    2.8757   23.5515 C   0  0  0  0  0  0  0  0  0  0  0  0
    4.6990    3.9297   22.9878 O   0  0  0  0  0  0  0  0  0  0  0  0
    4.6051    1.2889   22.4565 C   0  0  0  0  0  0  0  0  0  0  0  0
    2.9600    2.0945   22.3107 C   0  0  0  0  0  0  0  0  0  0  0  0
    4.8514    0.1784   23.8048 C   0  0  0  0  0  0  0  0  0  0  0  0
    5.5171    0.7483   20.6160 C   0  0  0  0  0  0  0  0  0  0  0  0
    6.6274    0.3612   19.3117 C   0  0  0  0  0  0  0  0  0  0  0  0
    7.8891    0.7978   19.0192 N   0  0  0  0  0  0  0  0  0  0  0  0
    7.9404    1.9471   19.6446 C   0  0  0  0  0  0  0  0  0  0  0  0
    7.0191    1.8823   20.6200 N   0  0  0  0  0  0  0  0  0  0  0  0
    1.6634    1.8660   27.4493 C   0  0  0  0  0  0  0  0  0  0  0  0
    1.2205    2.1844   26.3801 O   0  0  0  0  0  0  0  0  0  0  0  0
    0.8023    1.1536   28.3902 C   0  0  0  0  0  0  0  0  0  0  0  0
    0.9378    0.7427   29.6989 C   0  0  0  0  0  0  0  0  0  0  0  0
   -0.2498    0.0374   29.9816 C   0  0  0  0  0  0  0  0  0  0  0  0
   -0.6365   -0.6635   31.2190 C   0  0  0  0  0  0  0  0  0  0  0  0
   -1.0823    0.0482   28.9396 N   0  0  0  0  0  0  0  0  0  0  0  0
   -0.4263    0.7507   27.9454 O   0  0  0  0  0  0  0  0  0  0  0  0
    5.2083   -0.5106   28.6713 H   0  0  0  0  0  0  0  0  0  0  0  0
    5.3261    1.1311   29.3255 H   0  0  0  0  0  0  0  0  0  0  0  0
    3.9399    0.1180   29.7297 H   0  0  0  0  0  0  0  0  0  0  0  0
    3.1895    0.0564   27.4398 H   0  0  0  0  0  0  0  0  0  0  0  0
    4.5109    0.8953   26.7977 H   0  0  0  0  0  0  0  0  0  0  0  0
    4.0844    3.7449   28.1412 H   0  0  0  0  0  0  0  0  0  0  0  0
    5.1979    2.5434   27.7196 H   0  0  0  0  0  0  0  0  0  0  0  0
    3.0187    3.8960   25.9209 H   0  0  0  0  0  0  0  0  0  0  0  0
    4.7195    4.3017   25.9677 H   0  0  0  0  0  0  0  0  0  0  0  0
    4.1289    1.6176   25.0550 H   0  0  0  0  0  0  0  0  0  0  0  0
    2.4500    1.7474   21.4080 H   0  0  0  0  0  0  0  0  0  0  0  0
    2.8687    3.1893   22.1752 H   0  0  0  0  0  0  0  0  0  0  0  0
    2.4807    1.9981   23.2948 H   0  0  0  0  0  0  0  0  0  0  0  0
    3.9920    0.0816   24.4926 H   0  0  0  0  0  0  0  0  0  0  0  0
    4.9004   -0.8567   23.4488 H   0  0  0  0  0  0  0  0  0  0  0  0
    5.6485    0.4909   24.4718 H   0  0  0  0  0  0  0  0  0  0  0  0
    6.2639    0.0102   18.3410 H   0  0  0  0  0  0  0  0  0  0  0  0
    8.3671    0.6125   18.1528 H   0  0  0  0  0  0  0  0  0  0  0  0
    8.6476    2.7366   19.4153 H   0  0  0  0  0  0  0  0  0  0  0  0
    1.7828    0.9158   30.3465 H   0  0  0  0  0  0  0  0  0  0  0  0
    0.1404   -0.5724   31.9850 H   0  0  0  0  0  0  0  0  0  0  0  0
   -1.5622   -0.2449   31.6277 H   0  0  0  0  0  0  0  0  0  0  0  0
   -0.7959   -1.7295   31.0261 H   0  0  0  0  0  0  0  0  0  0  0  0
  1  2  1  0
  2  3  1  0
  3  4  1  0
  4  5  1  0
  5  6  1  0
  6  7  1  0
  7  8  2  0
  7  9  1  0
  9 10  1  0
  9 11  1  0
  9 12  1  0
 12 13  2  0
 13 14  1  0
 14 15  1  0
 15 16  2  0
  3 17  1  0
 17 18  2  0
 17 19  1  0
 19 20  2  0
 20 21  1  0
 21 22  1  0
 21 23  2  0
 23 24  1  0
 16 12  1  0
 24 19  1  0
  1 25  1  0
  1 26  1  0
  1 27  1  0
  2 28  1  0
  2 29  1  0
  4 30  1  0
  4 31  1  0
  5 32  1  0
  5 33  1  0
  6 34  1  0
 10 35  1  0
 10 36  1  0
 10 37  1  0
 11 38  1  0
 11 39  1  0
 11 40  1  0
 13 41  1  0
 14 42  1  0
 15 43  1  0
 20 44  1  0
 22 45  1  0
 22 46  1  0
 22 47  1  0
M  END
>  <Energy>  (363) 
581.72466634728846

>  <compound_id>  (363) 
54359

>  <target_id>  (363) 
1

>  <reference_id>  (363) 
59

>  <inspiration_ids>  (363) 
[59, 80]

>  <energy_score>  (363) 
498.0718690561887

>  <distance_score>  (363) 
8.924573007358978

>  <path>  (363) 
/opt/xchem-fragalysis-2/maxwin/BulkDock/SCRATCH/511020/C54359-P59/C54359-P59.minimised.mol

>  <scratch_subdir>  (363) 
/opt/xchem-fragalysis-2/maxwin/BulkDock/SCRATCH/511020/C54359-P59

>  <fragmenstein_runtime>  (363) 
10.753550052642822

>  <fragmenstein_outcome>  (363) 
too moved

>  <fragmenstein_mode>  (363) 
expansion

>  <fragmenstein_error>  (363) 


$$$$
C54359-P80
     RDKit          3D

 47 48  0  0  0  0  0  0  0  0999 V2000
    5.9716    3.3824   30.1872 C   0  0  0  0  0  0  0  0  0  0  0  0
    6.8242    3.7077   28.9480 C   0  0  0  0  0  0  0  0  0  0  0  0
    6.1370    3.3445   27.6191 N   0  0  0  0  0  0  0  0  0  0  0  0
    7.3192    4.1360   27.0480 C   0  0  0  0  0  0  0  0  0  0  0  0
    8.7030    3.4403   26.8248 C   0  0  0  0  0  0  0  0  0  0  0  0
    9.2887    3.7540   25.5269 N   0  0  0  0  0  0  0  0  0  0  0  0
   10.0842    4.8714   25.0956 C   0  0  0  0  0  0  0  0  0  0  0  0
   10.4045    5.8729   25.6741 O   0  0  0  0  0  0  0  0  0  0  0  0
   10.4855    4.7365   23.5544 C   0  0  0  0  0  0  0  0  0  0  0  0
   11.4987    5.8544   23.2124 C   0  0  0  0  0  0  0  0  0  0  0  0
    9.2112    5.0057   22.7288 C   0  0  0  0  0  0  0  0  0  0  0  0
   11.0549    3.3668   23.1970 C   0  0  0  0  0  0  0  0  0  0  0  0
   12.2248    3.0154   22.5438 C   0  0  0  0  0  0  0  0  0  0  0  0
   12.2796    1.6510   22.5835 N   0  0  0  0  0  0  0  0  0  0  0  0
   11.1648    1.2298   23.2427 C   0  0  0  0  0  0  0  0  0  0  0  0
   10.3546    2.2229   23.5202 N   0  0  0  0  0  0  0  0  0  0  0  0
    5.8440    1.9405   27.5795 C   0  0  0  0  0  0  0  0  0  0  0  0
    6.4969    1.0204   27.1675 O   0  0  0  0  0  0  0  0  0  0  0  0
    4.4785    1.6180   28.0325 C   0  0  0  0  0  0  0  0  0  0  0  0
    3.7823    0.4240   27.9780 C   0  0  0  0  0  0  0  0  0  0  0  0
    2.4765    0.7334   28.4122 C   0  0  0  0  0  0  0  0  0  0  0  0
    1.2939   -0.1558   28.4781 C   0  0  0  0  0  0  0  0  0  0  0  0
    2.3811    2.0200   28.7682 N   0  0  0  0  0  0  0  0  0  0  0  0
    3.6246    2.5781   28.4984 O   0  0  0  0  0  0  0  0  0  0  0  0
    5.0089    3.9002   30.1493 H   0  0  0  0  0  0  0  0  0  0  0  0
    5.8011    2.3086   30.3013 H   0  0  0  0  0  0  0  0  0  0  0  0
    6.4931    3.7198   31.0899 H   0  0  0  0  0  0  0  0  0  0  0  0
    7.7463    3.1244   29.0853 H   0  0  0  0  0  0  0  0  0  0  0  0
    6.9973    4.7865   29.0832 H   0  0  0  0  0  0  0  0  0  0  0  0
    6.9343    4.2658   26.0229 H   0  0  0  0  0  0  0  0  0  0  0  0
    7.3942    5.1991   27.3319 H   0  0  0  0  0  0  0  0  0  0  0  0
    8.6260    2.3522   26.8792 H   0  0  0  0  0  0  0  0  0  0  0  0
    9.4069    3.7779   27.5926 H   0  0  0  0  0  0  0  0  0  0  0  0
    9.2944    3.0388   24.7942 H   0  0  0  0  0  0  0  0  0  0  0  0
   12.4198    5.7460   23.7976 H   0  0  0  0  0  0  0  0  0  0  0  0
   11.0897    6.8486   23.4283 H   0  0  0  0  0  0  0  0  0  0  0  0
   11.7726    5.8410   22.1509 H   0  0  0  0  0  0  0  0  0  0  0  0
    8.4518    4.2340   22.8837 H   0  0  0  0  0  0  0  0  0  0  0  0
    8.7565    5.9637   23.0071 H   0  0  0  0  0  0  0  0  0  0  0  0
    9.4316    5.0381   21.6563 H   0  0  0  0  0  0  0  0  0  0  0  0
   13.0176    3.6027   22.1014 H   0  0  0  0  0  0  0  0  0  0  0  0
   13.0239    1.0536   22.2464 H   0  0  0  0  0  0  0  0  0  0  0  0
   11.0023    0.1942   23.4970 H   0  0  0  0  0  0  0  0  0  0  0  0
    4.1643   -0.5171   27.6053 H   0  0  0  0  0  0  0  0  0  0  0  0
    0.9421   -0.2510   29.5103 H   0  0  0  0  0  0  0  0  0  0  0  0
    1.5326   -1.1578   28.1070 H   0  0  0  0  0  0  0  0  0  0  0  0
    0.4770    0.2436   27.8685 H   0  0  0  0  0  0  0  0  0  0  0  0
  1  2  1  0
  2  3  1  0
  3  4  1  0
  4  5  1  0
  5  6  1  0
  6  7  1  0
  7  8  2  0
  7  9  1  0
  9 10  1  0
  9 11  1  0
  9 12  1  0
 12 13  2  0
 13 14  1  0
 14 15  1  0
 15 16  2  0
  3 17  1  0
 17 18  2  0
 17 19  1  0
 19 20  2  0
 20 21  1  0
 21 22  1  0
 21 23  2  0
 23 24  1  0
 16 12  1  0
 24 19  1  0
  1 25  1  0
  1 26  1  0
  1 27  1  0
  2 28  1  0
  2 29  1  0
  4 30  1  0
  4 31  1  0
  5 32  1  0
  5 33  1  0
  6 34  1  0
 10 35  1  0
 10 36  1  0
 10 37  1  0
 11 38  1  0
 11 39  1  0
 11 40  1  0
 13 41  1  0
 14 42  1  0
 15 43  1  0
 20 44  1  0
 22 45  1  0
 22 46  1  0
 22 47  1  0
M  END
>  <Energy>  (364) 
106.61703656179597

>  <compound_id>  (364) 
54359

>  <target_id>  (364) 
1

>  <reference_id>  (364) 
80

>  <inspiration_ids>  (364) 
[59, 80]

>  <energy_score>  (364) 
22.96423927069327

>  <distance_score>  (364) 
11.225231427931702

>  <path>  (364) 
/opt/xchem-fragalysis-2/maxwin/BulkDock/SCRATCH/511020/C54359-P80/C54359-P80.minimised.mol

>  <scratch_subdir>  (364) 
/opt/xchem-fragalysis-2/maxwin/BulkDock/SCRATCH/511020/C54359-P80

>  <fragmenstein_runtime>  (364) 
21.120670080184937

>  <fragmenstein_outcome>  (364) 
too moved

>  <fragmenstein_mode>  (364) 
expansion

>  <fragmenstein_error>  (364) 


$$$$
C54360-P59
     RDKit          3D

 33 34  0  0  0  0  0  0  0  0999 V2000
    5.1331   -1.6601   24.8043 C   0  0  0  0  0  0  0  0  0  0  0  0
    4.8641   -0.3535   23.9565 C   0  0  0  0  0  0  0  0  0  0  0  0
    5.0278   -0.7343   21.9931 C   0  0  0  0  0  0  0  0  0  0  0  0
    6.4355   -0.5470   20.5047 C   0  0  0  0  0  0  0  0  0  0  0  0
    6.7206    0.3906   19.2824 C   0  0  0  0  0  0  0  0  0  0  0  0
    7.9801    0.8877   19.2021 C   0  0  0  0  0  0  0  0  0  0  0  0
    8.5467   -0.2507   19.4844 N   0  0  0  0  0  0  0  0  0  0  0  0
    7.6581   -1.0702   20.2104 O   0  0  0  0  0  0  0  0  0  0  0  0
    3.6017    0.1635   24.9013 N   0  0  0  0  0  0  0  0  0  0  0  0
    3.6865    0.3887   26.4072 C   0  0  0  0  0  0  0  0  0  0  0  0
    2.8444    1.6477   26.9235 C   0  0  0  0  0  0  0  0  0  0  0  0
    1.4149    1.4641   27.0084 O   0  0  0  0  0  0  0  0  0  0  0  0
    3.2539   -0.7641   27.3227 C   0  0  0  0  0  0  0  0  0  0  0  0
    4.0083   -1.4895   28.1310 N   0  0  0  0  0  0  0  0  0  0  0  0
    3.1462   -2.2638   28.8731 C   0  0  0  0  0  0  0  0  0  0  0  0
    1.8423   -1.9994   28.5427 C   0  0  0  0  0  0  0  0  0  0  0  0
    1.9249   -1.0515   27.5629 N   0  0  0  0  0  0  0  0  0  0  0  0
    5.5766   -2.4575   24.2226 H   0  0  0  0  0  0  0  0  0  0  0  0
    4.2497   -2.1355   25.2172 H   0  0  0  0  0  0  0  0  0  0  0  0
    5.7996   -1.4366   25.6468 H   0  0  0  0  0  0  0  0  0  0  0  0
    5.5291    0.4777   24.1698 H   0  0  0  0  0  0  0  0  0  0  0  0
    4.9124   -1.7663   22.3294 H   0  0  0  0  0  0  0  0  0  0  0  0
    4.4479    0.0609   21.5406 H   0  0  0  0  0  0  0  0  0  0  0  0
    6.6429   -0.2196   18.3791 H   0  0  0  0  0  0  0  0  0  0  0  0
    8.4591    1.6741   18.6389 H   0  0  0  0  0  0  0  0  0  0  0  0
    3.3472    1.0336   24.4348 H   0  0  0  0  0  0  0  0  0  0  0  0
    4.7360    0.6278   26.6196 H   0  0  0  0  0  0  0  0  0  0  0  0
    3.1910    1.9129   27.9298 H   0  0  0  0  0  0  0  0  0  0  0  0
    3.0362    2.5040   26.2675 H   0  0  0  0  0  0  0  0  0  0  0  0
    1.0517    2.2993   27.3538 H   0  0  0  0  0  0  0  0  0  0  0  0
    3.5191   -2.9605   29.6120 H   0  0  0  0  0  0  0  0  0  0  0  0
    0.8959   -2.3757   28.9014 H   0  0  0  0  0  0  0  0  0  0  0  0
    1.1560   -0.5589   27.1214 H   0  0  0  0  0  0  0  0  0  0  0  0
  1  2  1  0
  2  3  1  0
  3  4  1  0
  4  5  2  0
  5  6  1  0
  6  7  2  0
  7  8  1  0
  2  9  1  0
  9 10  1  0
 10 11  1  0
 11 12  1  0
 10 13  1  0
 13 14  2  0
 14 15  1  0
 15 16  2  0
 16 17  1  0
  8  4  1  0
 17 13  1  0
  1 18  1  0
  1 19  1  0
  1 20  1  0
  2 21  1  0
  3 22  1  0
  3 23  1  0
  5 24  1  0
  6 25  1  0
  9 26  1  0
 10 27  1  0
 11 28  1  0
 11 29  1  0
 12 30  1  0
 15 31  1  0
 16 32  1  0
 17 33  1  0
M  END
>  <Energy>  (365) 
378.65964675323141

>  <compound_id>  (365) 
54360

>  <target_id>  (365) 
1

>  <reference_id>  (365) 
59

>  <inspiration_ids>  (365) 
[59, 80]

>  <energy_score>  (365) 
293.57967530912083

>  <distance_score>  (365) 
8.88777184476664

>  <path>  (365) 
/opt/xchem-fragalysis-2/maxwin/BulkDock/SCRATCH/511020/C54360-P59/C54360-P59.minimised.mol

>  <scratch_subdir>  (365) 
/opt/xchem-fragalysis-2/maxwin/BulkDock/SCRATCH/511020/C54360-P59

>  <fragmenstein_runtime>  (365) 
6.05461049079895

>  <fragmenstein_outcome>  (365) 
too moved

>  <fragmenstein_mode>  (365) 
expansion

>  <fragmenstein_error>  (365) 


$$$$
C54360-P80
     RDKit          3D

 33 34  0  0  0  0  0  0  0  0999 V2000
    5.1812   -0.9343   26.5736 C   0  0  0  0  0  0  0  0  0  0  0  0
    3.9732   -0.9926   25.6145 C   0  0  0  0  0  0  0  0  0  0  0  0
    4.3660   -1.8801   24.2274 C   0  0  0  0  0  0  0  0  0  0  0  0
    4.9501   -1.3651   22.7315 C   0  0  0  0  0  0  0  0  0  0  0  0
    4.9261   -0.1506   21.7913 C   0  0  0  0  0  0  0  0  0  0  0  0
    6.5178   -0.2966   20.8808 C   0  0  0  0  0  0  0  0  0  0  0  0
    6.9422   -1.5117   20.8084 N   0  0  0  0  0  0  0  0  0  0  0  0
    5.5904   -2.3061   21.6286 O   0  0  0  0  0  0  0  0  0  0  0  0
    2.8442   -1.5705   26.5008 N   0  0  0  0  0  0  0  0  0  0  0  0
    2.3827   -0.9167   27.7832 C   0  0  0  0  0  0  0  0  0  0  0  0
    1.4584    0.3537   27.7499 C   0  0  0  0  0  0  0  0  0  0  0  0
    0.0500    0.0971   27.6191 O   0  0  0  0  0  0  0  0  0  0  0  0
    1.6690   -1.9161   28.6925 C   0  0  0  0  0  0  0  0  0  0  0  0
    1.0208   -1.6490   29.8179 N   0  0  0  0  0  0  0  0  0  0  0  0
    0.4184   -2.8218   30.1912 C   0  0  0  0  0  0  0  0  0  0  0  0
    0.6814   -3.8116   29.2769 C   0  0  0  0  0  0  0  0  0  0  0  0
    1.4967   -3.2300   28.3444 N   0  0  0  0  0  0  0  0  0  0  0  0
    5.0388   -1.5315   27.4825 H   0  0  0  0  0  0  0  0  0  0  0  0
    6.0931   -1.3521   26.1508 H   0  0  0  0  0  0  0  0  0  0  0  0
    5.3678    0.0972   26.8902 H   0  0  0  0  0  0  0  0  0  0  0  0
    3.6800    0.0168   25.3208 H   0  0  0  0  0  0  0  0  0  0  0  0
    3.5072   -2.5136   23.9989 H   0  0  0  0  0  0  0  0  0  0  0  0
    5.1833   -2.4851   24.5833 H   0  0  0  0  0  0  0  0  0  0  0  0
    4.4096    0.7433   21.9914 H   0  0  0  0  0  0  0  0  0  0  0  0
    7.2590    0.3397   20.3938 H   0  0  0  0  0  0  0  0  0  0  0  0
    2.0553   -1.7836   25.8902 H   0  0  0  0  0  0  0  0  0  0  0  0
    3.2842   -0.6156   28.3280 H   0  0  0  0  0  0  0  0  0  0  0  0
    1.7705    1.0334   26.9518 H   0  0  0  0  0  0  0  0  0  0  0  0
    1.5839    0.9106   28.6872 H   0  0  0  0  0  0  0  0  0  0  0  0
   -0.1841   -0.4602   28.3899 H   0  0  0  0  0  0  0  0  0  0  0  0
   -0.1797   -2.8853   31.0905 H   0  0  0  0  0  0  0  0  0  0  0  0
    0.3747   -4.8441   29.2085 H   0  0  0  0  0  0  0  0  0  0  0  0
    1.8757   -3.6287   27.4948 H   0  0  0  0  0  0  0  0  0  0  0  0
  1  2  1  0
  2  3  1  0
  3  4  1  0
  4  5  2  0
  5  6  1  0
  6  7  2  0
  7  8  1  0
  2  9  1  0
  9 10  1  0
 10 11  1  0
 11 12  1  0
 10 13  1  0
 13 14  2  0
 14 15  1  0
 15 16  2  0
 16 17  1  0
  8  4  1  0
 17 13  1  0
  1 18  1  0
  1 19  1  0
  1 20  1  0
  2 21  1  0
  3 22  1  0
  3 23  1  0
  5 24  1  0
  6 25  1  0
  9 26  1  0
 10 27  1  0
 11 28  1  0
 11 29  1  0
 12 30  1  0
 15 31  1  0
 16 32  1  0
 17 33  1  0
M  END
>  <Energy>  (366) 
207.51889090126429

>  <compound_id>  (366) 
54360

>  <target_id>  (366) 
1

>  <reference_id>  (366) 
80

>  <inspiration_ids>  (366) 
[59, 80]

>  <energy_score>  (366) 
122.4389194571537

>  <distance_score>  (366) 
8.629795458521473

>  <path>  (366) 
/opt/xchem-fragalysis-2/maxwin/BulkDock/SCRATCH/511020/C54360-P80/C54360-P80.minimised.mol

>  <scratch_subdir>  (366) 
/opt/xchem-fragalysis-2/maxwin/BulkDock/SCRATCH/511020/C54360-P80

>  <fragmenstein_runtime>  (366) 
9.31800627708435

>  <fragmenstein_outcome>  (366) 
too moved

>  <fragmenstein_mode>  (366) 
expansion

>  <fragmenstein_error>  (366) 


$$$$
C54361-P59
     RDKit          3D

 45 46  0  0  0  0  0  0  0  0999 V2000
    3.9936    1.9360   24.9772 C   0  0  0  0  0  0  0  0  0  0  0  0
    5.4628    1.4949   25.1178 C   0  0  0  0  0  0  0  0  0  0  0  0
    5.8532    1.4065   26.6226 C   0  0  0  0  0  0  0  0  0  0  0  0
    4.9254    0.6277   27.4291 N   0  0  0  0  0  0  0  0  0  0  0  0
    3.7199    1.0155   28.1258 C   0  0  0  0  0  0  0  0  0  0  0  0
    3.2213    2.0911   28.2816 O   0  0  0  0  0  0  0  0  0  0  0  0
    3.0463   -0.2503   28.6912 C   0  0  0  0  0  0  0  0  0  0  0  0
    1.6764   -0.0250   29.2366 C   0  0  0  0  0  0  0  0  0  0  0  0
    1.3126    0.6392   30.4311 C   0  0  0  0  0  0  0  0  0  0  0  0
   -0.0039    0.6106   30.6503 N   0  0  0  0  0  0  0  0  0  0  0  0
   -0.5389   -0.0485   29.5548 O   0  0  0  0  0  0  0  0  0  0  0  0
    0.4638   -0.4188   28.7178 C   0  0  0  0  0  0  0  0  0  0  0  0
    5.8062    0.2480   24.3855 N   0  0  0  0  0  0  0  0  0  0  0  0
    5.1560   -0.9937   24.7331 C   0  0  0  0  0  0  0  0  0  0  0  0
    6.7479    0.2204   23.3583 C   0  0  0  0  0  0  0  0  0  0  0  0
    7.9261    0.0009   23.6485 O   0  0  0  0  0  0  0  0  0  0  0  0
    6.2449    0.3557   21.8827 C   0  0  0  0  0  0  0  0  0  0  0  0
    5.3174   -0.6964   21.6017 O   0  0  0  0  0  0  0  0  0  0  0  0
    7.4115    0.2225   20.8868 C   0  0  0  0  0  0  0  0  0  0  0  0
    7.1420    0.5005   19.4408 C   0  0  0  0  0  0  0  0  0  0  0  0
    5.9763    0.4169   18.7142 C   0  0  0  0  0  0  0  0  0  0  0  0
    6.3261    0.6884   17.4213 N   0  0  0  0  0  0  0  0  0  0  0  0
    7.6653    0.9468   17.3953 C   0  0  0  0  0  0  0  0  0  0  0  0
    8.1901    0.8054   18.5896 N   0  0  0  0  0  0  0  0  0  0  0  0
    3.7570    2.1272   23.9265 H   0  0  0  0  0  0  0  0  0  0  0  0
    3.8175    2.8683   25.5240 H   0  0  0  0  0  0  0  0  0  0  0  0
    3.2996    1.1839   25.3512 H   0  0  0  0  0  0  0  0  0  0  0  0
    6.0880    2.2805   24.6732 H   0  0  0  0  0  0  0  0  0  0  0  0
    5.8666    2.4171   27.0458 H   0  0  0  0  0  0  0  0  0  0  0  0
    6.8478    0.9649   26.7424 H   0  0  0  0  0  0  0  0  0  0  0  0
    5.0860   -0.3614   27.5719 H   0  0  0  0  0  0  0  0  0  0  0  0
    3.6902   -0.6476   29.4852 H   0  0  0  0  0  0  0  0  0  0  0  0
    2.9944   -1.0015   27.8928 H   0  0  0  0  0  0  0  0  0  0  0  0
    1.9491    1.1332   31.1522 H   0  0  0  0  0  0  0  0  0  0  0  0
    0.1476   -0.9444   27.8270 H   0  0  0  0  0  0  0  0  0  0  0  0
    4.0999   -0.8249   24.9232 H   0  0  0  0  0  0  0  0  0  0  0  0
    5.6280   -1.3933   25.6346 H   0  0  0  0  0  0  0  0  0  0  0  0
    5.2774   -1.7326   23.9407 H   0  0  0  0  0  0  0  0  0  0  0  0
    5.7419    1.3223   21.7681 H   0  0  0  0  0  0  0  0  0  0  0  0
    4.5224   -0.4512   22.1232 H   0  0  0  0  0  0  0  0  0  0  0  0
    8.2098    0.9050   21.1992 H   0  0  0  0  0  0  0  0  0  0  0  0
    7.7638   -0.8139   20.9280 H   0  0  0  0  0  0  0  0  0  0  0  0
    4.9635    0.1642   18.9948 H   0  0  0  0  0  0  0  0  0  0  0  0
    5.7019    0.6613   16.6288 H   0  0  0  0  0  0  0  0  0  0  0  0
    8.2009    1.2002   16.4892 H   0  0  0  0  0  0  0  0  0  0  0  0
  1  2  1  0
  2  3  1  0
  3  4  1  0
  4  5  1  0
  5  6  2  0
  5  7  1  0
  7  8  1  0
  8  9  1  0
  9 10  2  0
 10 11  1  0
 11 12  1  0
  2 13  1  0
 13 14  1  0
 13 15  1  0
 15 16  2  0
 15 17  1  0
 17 18  1  0
 17 19  1  0
 19 20  1  0
 20 21  2  0
 21 22  1  0
 22 23  1  0
 23 24  2  0
 12  8  2  0
 24 20  1  0
  1 25  1  0
  1 26  1  0
  1 27  1  0
  2 28  1  0
  3 29  1  0
  3 30  1  0
  4 31  1  0
  7 32  1  0
  7 33  1  0
  9 34  1  0
 12 35  1  0
 14 36  1  0
 14 37  1  0
 14 38  1  0
 17 39  1  0
 18 40  1  0
 19 41  1  0
 19 42  1  0
 21 43  1  0
 22 44  1  0
 23 45  1  0
M  END
>  <Energy>  (367) 
70.923366785936466

>  <compound_id>  (367) 
54361

>  <target_id>  (367) 
1

>  <reference_id>  (367) 
59

>  <inspiration_ids>  (367) 
[59, 80]

>  <energy_score>  (367) 
-16.59429530547436

>  <distance_score>  (367) 
9.565995165223471

>  <path>  (367) 
/opt/xchem-fragalysis-2/maxwin/BulkDock/SCRATCH/511020/C54361-P59/C54361-P59.minimised.mol

>  <scratch_subdir>  (367) 
/opt/xchem-fragalysis-2/maxwin/BulkDock/SCRATCH/511020/C54361-P59

>  <fragmenstein_runtime>  (367) 
14.639452457427979

>  <fragmenstein_outcome>  (367) 
too moved

>  <fragmenstein_mode>  (367) 
expansion

>  <fragmenstein_error>  (367) 


$$$$
C54361-P80
     RDKit          3D

 45 46  0  0  0  0  0  0  0  0999 V2000
    4.3055    1.5920   25.1638 C   0  0  0  0  0  0  0  0  0  0  0  0
    4.0861    2.4922   23.7352 C   0  0  0  0  0  0  0  0  0  0  0  0
    4.2397    4.0587   24.4874 C   0  0  0  0  0  0  0  0  0  0  0  0
    3.1753    4.2824   25.4530 N   0  0  0  0  0  0  0  0  0  0  0  0
    1.7502    4.0690   25.3575 C   0  0  0  0  0  0  0  0  0  0  0  0
    1.0717    3.7270   24.4306 O   0  0  0  0  0  0  0  0  0  0  0  0
    1.0705    4.3516   26.7170 C   0  0  0  0  0  0  0  0  0  0  0  0
    0.1191    3.2714   27.1117 C   0  0  0  0  0  0  0  0  0  0  0  0
    0.4043    1.9309   27.4571 C   0  0  0  0  0  0  0  0  0  0  0  0
   -0.6946    1.2440   27.7737 N   0  0  0  0  0  0  0  0  0  0  0  0
   -1.7393    2.1418   27.6378 O   0  0  0  0  0  0  0  0  0  0  0  0
   -1.2490    3.3451   27.2488 C   0  0  0  0  0  0  0  0  0  0  0  0
    5.4890    1.6485   22.7457 N   0  0  0  0  0  0  0  0  0  0  0  0
    4.4047    2.5377   22.8185 C   0  0  0  0  0  0  0  0  0  0  0  0
    6.0035    1.7207   21.4176 C   0  0  0  0  0  0  0  0  0  0  0  0
    6.8912    2.4870   21.0642 O   0  0  0  0  0  0  0  0  0  0  0  0
    5.3887    0.6464   20.4382 C   0  0  0  0  0  0  0  0  0  0  0  0
    5.0203   -0.5463   21.1482 O   0  0  0  0  0  0  0  0  0  0  0  0
    6.2760    0.1327   19.2854 C   0  0  0  0  0  0  0  0  0  0  0  0
    6.8069    1.0479   18.2228 C   0  0  0  0  0  0  0  0  0  0  0  0
    6.5789    2.3755   17.9440 C   0  0  0  0  0  0  0  0  0  0  0  0
    7.5208    2.7302   17.0099 N   0  0  0  0  0  0  0  0  0  0  0  0
    8.2569    1.6203   16.7174 C   0  0  0  0  0  0  0  0  0  0  0  0
    7.8081    0.5770   17.3752 N   0  0  0  0  0  0  0  0  0  0  0  0
    5.2520    1.8832   25.6314 H   0  0  0  0  0  0  0  0  0  0  0  0
    4.3645    0.5253   24.9382 H   0  0  0  0  0  0  0  0  0  0  0  0
    3.4795    1.7593   25.8593 H   0  0  0  0  0  0  0  0  0  0  0  0
    2.9203    2.1439   23.6733 H   0  0  0  0  0  0  0  0  0  0  0  0
    4.1436    4.8472   23.7314 H   0  0  0  0  0  0  0  0  0  0  0  0
    5.2079    4.1369   24.9927 H   0  0  0  0  0  0  0  0  0  0  0  0
    3.4153    4.4886   26.4166 H   0  0  0  0  0  0  0  0  0  0  0  0
    1.8061    4.4715   27.5195 H   0  0  0  0  0  0  0  0  0  0  0  0
    0.5466    5.3100   26.6194 H   0  0  0  0  0  0  0  0  0  0  0  0
    1.3575    1.4212   27.4928 H   0  0  0  0  0  0  0  0  0  0  0  0
   -1.9882    4.1248   27.1249 H   0  0  0  0  0  0  0  0  0  0  0  0
    3.9692    3.2295   21.9366 H   0  0  0  0  0  0  0  0  0  0  0  0
    5.1852    3.4130   22.5549 H   0  0  0  0  0  0  0  0  0  0  0  0
    3.8174    1.8703   22.0164 H   0  0  0  0  0  0  0  0  0  0  0  0
    4.4756    1.0833   20.0175 H   0  0  0  0  0  0  0  0  0  0  0  0
    4.6405   -0.2689   22.0156 H   0  0  0  0  0  0  0  0  0  0  0  0
    5.7000   -0.6431   18.7614 H   0  0  0  0  0  0  0  0  0  0  0  0
    7.1191   -0.4035   19.7389 H   0  0  0  0  0  0  0  0  0  0  0  0
    5.9091    3.1071   18.3739 H   0  0  0  0  0  0  0  0  0  0  0  0
    7.6696    3.6567   16.6329 H   0  0  0  0  0  0  0  0  0  0  0  0
    9.0804    1.6258   16.0145 H   0  0  0  0  0  0  0  0  0  0  0  0
  1  2  1  0
  2  3  1  0
  3  4  1  0
  4  5  1  0
  5  6  2  0
  5  7  1  0
  7  8  1  0
  8  9  1  0
  9 10  2  0
 10 11  1  0
 11 12  1  0
  2 13  1  0
 13 14  1  0
 13 15  1  0
 15 16  2  0
 15 17  1  0
 17 18  1  0
 17 19  1  0
 19 20  1  0
 20 21  2  0
 21 22  1  0
 22 23  1  0
 23 24  2  0
 12  8  2  0
 24 20  1  0
  1 25  1  0
  1 26  1  0
  1 27  1  0
  2 28  1  0
  3 29  1  0
  3 30  1  0
  4 31  1  0
  7 32  1  0
  7 33  1  0
  9 34  1  0
 12 35  1  0
 14 36  1  0
 14 37  1  0
 14 38  1  0
 17 39  1  0
 18 40  1  0
 19 41  1  0
 19 42  1  0
 21 43  1  0
 22 44  1  0
 23 45  1  0
M  END
>  <Energy>  (368) 
630.90507478966913

>  <compound_id>  (368) 
54361

>  <target_id>  (368) 
1

>  <reference_id>  (368) 
80

>  <inspiration_ids>  (368) 
[59, 80]

>  <energy_score>  (368) 
543.3874126982581

>  <distance_score>  (368) 
10.394552239614937

>  <path>  (368) 
/opt/xchem-fragalysis-2/maxwin/BulkDock/SCRATCH/511020/C54361-P80/C54361-P80.minimised.mol

>  <scratch_subdir>  (368) 
/opt/xchem-fragalysis-2/maxwin/BulkDock/SCRATCH/511020/C54361-P80

>  <fragmenstein_runtime>  (368) 
14.480473279953003

>  <fragmenstein_outcome>  (368) 
too moved

>  <fragmenstein_mode>  (368) 
expansion

>  <fragmenstein_error>  (368) 


$$$$
C54362-P59
     RDKit          3D

 32 33  0  0  0  0  0  0  0  0999 V2000
   -2.2344    0.8386   26.9619 C   0  0  0  0  0  0  0  0  0  0  0  0
   -1.1865    1.0372   27.9563 C   0  0  0  0  0  0  0  0  0  0  0  0
    0.1457    1.3290   27.8471 C   0  0  0  0  0  0  0  0  0  0  0  0
    0.6502    0.9649   29.1113 C   0  0  0  0  0  0  0  0  0  0  0  0
    1.7938    0.0940   29.3109 C   0  0  0  0  0  0  0  0  0  0  0  0
    2.7608    0.3620   29.9011 O   0  0  0  0  0  0  0  0  0  0  0  0
    1.3556   -1.2320   28.6610 N   0  0  0  0  0  0  0  0  0  0  0  0
    1.9644   -2.5172   28.6829 C   0  0  0  0  0  0  0  0  0  0  0  0
    1.3881   -2.9613   30.2290 C   0  0  0  0  0  0  0  0  0  0  0  0
    0.0002   -2.6115   30.5900 O   0  0  0  0  0  0  0  0  0  0  0  0
    3.5473   -2.5493   28.3388 C   0  0  0  0  0  0  0  0  0  0  0  0
    4.2741   -2.4064   26.8401 C   0  0  0  0  0  0  0  0  0  0  0  0
    5.3513   -1.5762   26.5013 C   0  0  0  0  0  0  0  0  0  0  0  0
    6.0061   -2.2079   25.4931 N   0  0  0  0  0  0  0  0  0  0  0  0
    5.3038   -3.3302   25.2002 C   0  0  0  0  0  0  0  0  0  0  0  0
    4.1898   -3.4046   25.8801 N   0  0  0  0  0  0  0  0  0  0  0  0
   -0.3502    0.8081   30.0053 N   0  0  0  0  0  0  0  0  0  0  0  0
   -1.5021    0.7733   29.2455 O   0  0  0  0  0  0  0  0  0  0  0  0
   -1.9193    1.1941   25.9775 H   0  0  0  0  0  0  0  0  0  0  0  0
   -3.1343    1.3984   27.2292 H   0  0  0  0  0  0  0  0  0  0  0  0
   -2.4849   -0.2222   26.8759 H   0  0  0  0  0  0  0  0  0  0  0  0
    0.6949    1.4391   26.9244 H   0  0  0  0  0  0  0  0  0  0  0  0
    0.4861   -1.0904   28.1536 H   0  0  0  0  0  0  0  0  0  0  0  0
    1.4281   -3.1415   27.9622 H   0  0  0  0  0  0  0  0  0  0  0  0
    2.0364   -2.4891   30.9759 H   0  0  0  0  0  0  0  0  0  0  0  0
    1.4907   -4.0472   30.3187 H   0  0  0  0  0  0  0  0  0  0  0  0
   -0.0687   -1.6486   30.4421 H   0  0  0  0  0  0  0  0  0  0  0  0
    3.9073   -3.5285   28.6850 H   0  0  0  0  0  0  0  0  0  0  0  0
    4.0465   -1.7962   28.9616 H   0  0  0  0  0  0  0  0  0  0  0  0
    5.7932   -0.7446   27.0319 H   0  0  0  0  0  0  0  0  0  0  0  0
    6.9771   -2.0928   25.2487 H   0  0  0  0  0  0  0  0  0  0  0  0
    5.6677   -4.1393   24.5870 H   0  0  0  0  0  0  0  0  0  0  0  0
  1  2  1  0
  2  3  2  0
  3  4  1  0
  4  5  1  0
  5  6  2  0
  5  7  1  0
  7  8  1  0
  8  9  1  0
  9 10  1  0
  8 11  1  0
 11 12  1  0
 12 13  2  0
 13 14  1  0
 14 15  1  0
 15 16  2  0
  4 17  2  0
 17 18  1  0
 18  2  1  0
 16 12  1  0
  1 19  1  0
  1 20  1  0
  1 21  1  0
  3 22  1  0
  7 23  1  0
  8 24  1  0
  9 25  1  0
  9 26  1  0
 10 27  1  0
 11 28  1  0
 11 29  1  0
 13 30  1  0
 14 31  1  0
 15 32  1  0
M  END
>  <Energy>  (369) 
114.43504316507675

>  <compound_id>  (369) 
54362

>  <target_id>  (369) 
1

>  <reference_id>  (369) 
59

>  <inspiration_ids>  (369) 
[59, 80]

>  <energy_score>  (369) 
53.56036555569551

>  <distance_score>  (369) 
8.628677602847095

>  <path>  (369) 
/opt/xchem-fragalysis-2/maxwin/BulkDock/SCRATCH/511020/C54362-P59/C54362-P59.minimised.mol

>  <scratch_subdir>  (369) 
/opt/xchem-fragalysis-2/maxwin/BulkDock/SCRATCH/511020/C54362-P59

>  <fragmenstein_runtime>  (369) 
4.356382846832275

>  <fragmenstein_outcome>  (369) 
too moved

>  <fragmenstein_mode>  (369) 
expansion

>  <fragmenstein_error>  (369) 


$$$$
C54362-P80
     RDKit          3D

 32 33  0  0  0  0  0  0  0  0999 V2000
   -1.6051    2.6475   27.4701 C   0  0  0  0  0  0  0  0  0  0  0  0
   -1.6562    1.2635   27.9109 C   0  0  0  0  0  0  0  0  0  0  0  0
   -0.9970    0.5626   28.8681 C   0  0  0  0  0  0  0  0  0  0  0  0
   -1.2100   -0.7794   28.4660 C   0  0  0  0  0  0  0  0  0  0  0  0
   -0.3724   -1.8638   28.9100 C   0  0  0  0  0  0  0  0  0  0  0  0
   -0.7811   -2.8665   29.3456 O   0  0  0  0  0  0  0  0  0  0  0  0
    1.0780   -1.3489   28.7727 N   0  0  0  0  0  0  0  0  0  0  0  0
    2.3050   -1.9113   29.2241 C   0  0  0  0  0  0  0  0  0  0  0  0
    1.9854   -1.6686   30.9041 C   0  0  0  0  0  0  0  0  0  0  0  0
    0.6179   -1.7960   31.4403 O   0  0  0  0  0  0  0  0  0  0  0  0
    3.6270   -1.1691   28.6194 C   0  0  0  0  0  0  0  0  0  0  0  0
    4.4081   -1.3988   27.1930 C   0  0  0  0  0  0  0  0  0  0  0  0
    4.0444   -1.5316   25.8613 C   0  0  0  0  0  0  0  0  0  0  0  0
    5.1996   -1.6251   25.1323 N   0  0  0  0  0  0  0  0  0  0  0  0
    6.2262   -1.5953   26.0398 C   0  0  0  0  0  0  0  0  0  0  0  0
    5.7962   -1.2819   27.2269 N   0  0  0  0  0  0  0  0  0  0  0  0
   -2.2444   -0.8685   27.6418 N   0  0  0  0  0  0  0  0  0  0  0  0
   -2.4516    0.4280   27.2102 O   0  0  0  0  0  0  0  0  0  0  0  0
   -1.1495    2.7187   26.4772 H   0  0  0  0  0  0  0  0  0  0  0  0
   -2.6093    3.0770   27.4115 H   0  0  0  0  0  0  0  0  0  0  0  0
   -1.0145    3.2655   28.1534 H   0  0  0  0  0  0  0  0  0  0  0  0
   -0.2815    0.9455   29.5817 H   0  0  0  0  0  0  0  0  0  0  0  0
    1.0678   -0.4000   28.4247 H   0  0  0  0  0  0  0  0  0  0  0  0
    2.3053   -2.9881   29.0304 H   0  0  0  0  0  0  0  0  0  0  0  0
    2.6313   -2.3568   31.4591 H   0  0  0  0  0  0  0  0  0  0  0  0
    2.3014   -0.6452   31.1367 H   0  0  0  0  0  0  0  0  0  0  0  0
    0.2706   -2.6399   31.0870 H   0  0  0  0  0  0  0  0  0  0  0  0
    4.4135   -1.3596   29.3639 H   0  0  0  0  0  0  0  0  0  0  0  0
    3.4333   -0.0876   28.6432 H   0  0  0  0  0  0  0  0  0  0  0  0
    3.0848   -1.5753   25.3805 H   0  0  0  0  0  0  0  0  0  0  0  0
    5.2415   -1.7576   24.1354 H   0  0  0  0  0  0  0  0  0  0  0  0
    7.2672   -1.8133   25.8379 H   0  0  0  0  0  0  0  0  0  0  0  0
  1  2  1  0
  2  3  2  0
  3  4  1  0
  4  5  1  0
  5  6  2  0
  5  7  1  0
  7  8  1  0
  8  9  1  0
  9 10  1  0
  8 11  1  0
 11 12  1  0
 12 13  2  0
 13 14  1  0
 14 15  1  0
 15 16  2  0
  4 17  2  0
 17 18  1  0
 18  2  1  0
 16 12  1  0
  1 19  1  0
  1 20  1  0
  1 21  1  0
  3 22  1  0
  7 23  1  0
  8 24  1  0
  9 25  1  0
  9 26  1  0
 10 27  1  0
 11 28  1  0
 11 29  1  0
 13 30  1  0
 14 31  1  0
 15 32  1  0
M  END
>  <Energy>  (370) 
104.92465446890343

>  <compound_id>  (370) 
54362

>  <target_id>  (370) 
1

>  <reference_id>  (370) 
80

>  <inspiration_ids>  (370) 
[59, 80]

>  <energy_score>  (370) 
44.0499768595231

>  <distance_score>  (370) 
8.620776363315963

>  <path>  (370) 
/opt/xchem-fragalysis-2/maxwin/BulkDock/SCRATCH/511020/C54362-P80/C54362-P80.minimised.mol

>  <scratch_subdir>  (370) 
/opt/xchem-fragalysis-2/maxwin/BulkDock/SCRATCH/511020/C54362-P80

>  <fragmenstein_runtime>  (370) 
4.195626974105835

>  <fragmenstein_outcome>  (370) 
too moved

>  <fragmenstein_mode>  (370) 
expansion

>  <fragmenstein_error>  (370) 


$$$$
C54336-P59
     RDKit          3D

 29 30  0  0  0  0  0  0  0  0999 V2000
    2.2954   -2.4937   27.7902 O   0  0  0  0  0  0  0  0  0  0  0  0
    1.4269   -2.0008   28.3817 C   0  0  0  0  0  0  0  0  0  0  0  0
    1.0716   -0.5393   28.5733 N   0  0  0  0  0  0  0  0  0  0  0  0
    1.6501    0.6490   28.0019 C   0  0  0  0  0  0  0  0  0  0  0  0
    1.0291    1.5988   29.2875 C   0  0  0  0  0  0  0  0  0  0  0  0
   -0.2549    1.1406   29.8977 O   0  0  0  0  0  0  0  0  0  0  0  0
    3.2622    0.6958   27.6821 C   0  0  0  0  0  0  0  0  0  0  0  0
    3.9729    0.5503   26.1844 C   0  0  0  0  0  0  0  0  0  0  0  0
    4.5197   -0.5507   25.5301 C   0  0  0  0  0  0  0  0  0  0  0  0
    4.8716   -0.0832   24.2994 N   0  0  0  0  0  0  0  0  0  0  0  0
    4.8134    1.2721   24.3090 C   0  0  0  0  0  0  0  0  0  0  0  0
    4.3083    1.6909   25.4372 N   0  0  0  0  0  0  0  0  0  0  0  0
    0.4263   -2.6707   29.2378 C   0  0  0  0  0  0  0  0  0  0  0  0
   -0.6743   -1.9714   29.6293 N   0  0  0  0  0  0  0  0  0  0  0  0
   -1.2581   -2.6840   30.6364 O   0  0  0  0  0  0  0  0  0  0  0  0
   -0.5563   -3.8199   30.8205 C   0  0  0  0  0  0  0  0  0  0  0  0
    0.4929   -3.8790   29.9418 C   0  0  0  0  0  0  0  0  0  0  0  0
    1.6945   -5.0684   29.8645 Cl  0  0  0  0  0  0  0  0  0  0  0  0
    0.1878   -0.4678   29.0888 H   0  0  0  0  0  0  0  0  0  0  0  0
    1.0786    0.8964   27.1028 H   0  0  0  0  0  0  0  0  0  0  0  0
    1.7689    1.5826   30.0954 H   0  0  0  0  0  0  0  0  0  0  0  0
    0.9032    2.6284   28.9386 H   0  0  0  0  0  0  0  0  0  0  0  0
   -0.9267    1.2922   29.2065 H   0  0  0  0  0  0  0  0  0  0  0  0
    3.6047    1.6835   28.0197 H   0  0  0  0  0  0  0  0  0  0  0  0
    3.7599   -0.0527   28.3113 H   0  0  0  0  0  0  0  0  0  0  0  0
    4.5387   -1.6012   25.7841 H   0  0  0  0  0  0  0  0  0  0  0  0
    4.8000   -0.6218   23.4496 H   0  0  0  0  0  0  0  0  0  0  0  0
    5.0060    1.8936   23.4571 H   0  0  0  0  0  0  0  0  0  0  0  0
   -0.9015   -4.4648   31.6133 H   0  0  0  0  0  0  0  0  0  0  0  0
  1  2  2  0
  2  3  1  0
  3  4  1  0
  4  5  1  0
  5  6  1  0
  4  7  1  0
  7  8  1  0
  8  9  2  0
  9 10  1  0
 10 11  1  0
 11 12  2  0
  2 13  1  0
 13 14  2  0
 14 15  1  0
 15 16  1  0
 16 17  2  0
 17 18  1  0
 12  8  1  0
 17 13  1  0
  3 19  1  0
  4 20  1  0
  5 21  1  0
  5 22  1  0
  6 23  1  0
  7 24  1  0
  7 25  1  0
  9 26  1  0
 10 27  1  0
 11 28  1  0
 16 29  1  0
M  END
>  <Energy>  (371) 
94.751473426739324

>  <compound_id>  (371) 
54336

>  <target_id>  (371) 
1

>  <reference_id>  (371) 
59

>  <inspiration_ids>  (371) 
[59, 80]

>  <energy_score>  (371) 
40.7006504542091

>  <distance_score>  (371) 
8.66801852237428

>  <path>  (371) 
/opt/xchem-fragalysis-2/maxwin/BulkDock/SCRATCH/511020/C54336-P59/C54336-P59.minimised.mol

>  <scratch_subdir>  (371) 
/opt/xchem-fragalysis-2/maxwin/BulkDock/SCRATCH/511020/C54336-P59

>  <fragmenstein_runtime>  (371) 
3.9810068607330322

>  <fragmenstein_outcome>  (371) 
too moved

>  <fragmenstein_mode>  (371) 
expansion

>  <fragmenstein_error>  (371) 


$$$$
C54336-P80
     RDKit          3D

 29 30  0  0  0  0  0  0  0  0999 V2000
    6.2230    0.0977   27.2840 O   0  0  0  0  0  0  0  0  0  0  0  0
    5.3053    0.8540   27.1651 C   0  0  0  0  0  0  0  0  0  0  0  0
    4.3148    0.9690   26.1367 N   0  0  0  0  0  0  0  0  0  0  0  0
    4.0458    0.1325   24.9514 C   0  0  0  0  0  0  0  0  0  0  0  0
    3.6907   -1.2663   25.5841 C   0  0  0  0  0  0  0  0  0  0  0  0
    2.6436   -1.1654   26.5863 O   0  0  0  0  0  0  0  0  0  0  0  0
    4.9536   -0.1115   23.3540 C   0  0  0  0  0  0  0  0  0  0  0  0
    5.7525    0.8441   21.6946 C   0  0  0  0  0  0  0  0  0  0  0  0
    6.7420    1.9944   21.3134 C   0  0  0  0  0  0  0  0  0  0  0  0
    6.9451    1.9157   19.9518 N   0  0  0  0  0  0  0  0  0  0  0  0
    6.9034    0.6204   19.6789 C   0  0  0  0  0  0  0  0  0  0  0  0
    6.4940    0.0117   20.7460 N   0  0  0  0  0  0  0  0  0  0  0  0
    4.9936    1.8133   28.2606 C   0  0  0  0  0  0  0  0  0  0  0  0
    5.1128    1.4183   29.5464 N   0  0  0  0  0  0  0  0  0  0  0  0
    4.5268    2.4000   30.3178 O   0  0  0  0  0  0  0  0  0  0  0  0
    4.0830    3.3946   29.5189 C   0  0  0  0  0  0  0  0  0  0  0  0
    4.3611    3.0875   28.2150 C   0  0  0  0  0  0  0  0  0  0  0  0
    3.9813    4.0212   26.8509 Cl  0  0  0  0  0  0  0  0  0  0  0  0
    3.6390    1.6706   26.4067 H   0  0  0  0  0  0  0  0  0  0  0  0
    3.1222    0.6679   24.7129 H   0  0  0  0  0  0  0  0  0  0  0  0
    4.5672   -1.6854   26.0863 H   0  0  0  0  0  0  0  0  0  0  0  0
    3.3984   -1.9771   24.8095 H   0  0  0  0  0  0  0  0  0  0  0  0
    2.0679   -1.9277   26.3769 H   0  0  0  0  0  0  0  0  0  0  0  0
    4.6833   -1.0636   22.7914 H   0  0  0  0  0  0  0  0  0  0  0  0
    5.5585   -0.8572   23.9197 H   0  0  0  0  0  0  0  0  0  0  0  0
    6.8568    2.9985   21.7094 H   0  0  0  0  0  0  0  0  0  0  0  0
    7.0395    2.6781   19.2985 H   0  0  0  0  0  0  0  0  0  0  0  0
    7.1007    0.1525   18.7238 H   0  0  0  0  0  0  0  0  0  0  0  0
    3.6078    4.2249   30.0185 H   0  0  0  0  0  0  0  0  0  0  0  0
  1  2  2  0
  2  3  1  0
  3  4  1  0
  4  5  1  0
  5  6  1  0
  4  7  1  0
  7  8  1  0
  8  9  2  0
  9 10  1  0
 10 11  1  0
 11 12  2  0
  2 13  1  0
 13 14  2  0
 14 15  1  0
 15 16  1  0
 16 17  2  0
 17 18  1  0
 12  8  1  0
 17 13  1  0
  3 19  1  0
  4 20  1  0
  5 21  1  0
  5 22  1  0
  6 23  1  0
  7 24  1  0
  7 25  1  0
  9 26  1  0
 10 27  1  0
 11 28  1  0
 16 29  1  0
M  END
>  <Energy>  (372) 
281.09751407695791

>  <compound_id>  (372) 
54336

>  <target_id>  (372) 
1

>  <reference_id>  (372) 
80

>  <inspiration_ids>  (372) 
[59, 80]

>  <energy_score>  (372) 
209.2631696272402

>  <distance_score>  (372) 
9.345590914620583

>  <path>  (372) 
/opt/xchem-fragalysis-2/maxwin/BulkDock/SCRATCH/511020/C54336-P80/C54336-P80.minimised.mol

>  <scratch_subdir>  (372) 
/opt/xchem-fragalysis-2/maxwin/BulkDock/SCRATCH/511020/C54336-P80

>  <fragmenstein_runtime>  (372) 
5.736644983291626

>  <fragmenstein_outcome>  (372) 
too moved

>  <fragmenstein_mode>  (372) 
expansion

>  <fragmenstein_error>  (372) 


$$$$
C54363-P59
     RDKit          3D

 33 34  0  0  0  0  0  0  0  0999 V2000
   -0.3689   -2.5733   28.3979 O   0  0  0  0  0  0  0  0  0  0  0  0
    0.2619   -1.5601   28.4096 C   0  0  0  0  0  0  0  0  0  0  0  0
    1.6068   -1.3061   28.8071 N   0  0  0  0  0  0  0  0  0  0  0  0
    2.6007   -2.1728   29.4093 C   0  0  0  0  0  0  0  0  0  0  0  0
    1.9336   -2.8843   30.6307 C   0  0  0  0  0  0  0  0  0  0  0  0
    1.3086   -1.9622   31.5352 O   0  0  0  0  0  0  0  0  0  0  0  0
    3.1776   -3.2012   28.4032 C   0  0  0  0  0  0  0  0  0  0  0  0
    4.1134   -2.6890   27.3264 C   0  0  0  0  0  0  0  0  0  0  0  0
    5.0588   -3.4093   26.6207 C   0  0  0  0  0  0  0  0  0  0  0  0
    5.6448   -2.5153   25.7694 N   0  0  0  0  0  0  0  0  0  0  0  0
    5.0325   -1.3131   25.9474 C   0  0  0  0  0  0  0  0  0  0  0  0
    4.1070   -1.3856   26.8785 N   0  0  0  0  0  0  0  0  0  0  0  0
   -0.3948   -0.2950   28.0403 C   0  0  0  0  0  0  0  0  0  0  0  0
   -1.6223   -0.1196   27.3635 C   0  0  0  0  0  0  0  0  0  0  0  0
   -1.7454    1.2399   27.2262 C   0  0  0  0  0  0  0  0  0  0  0  0
   -2.7189    2.1176   26.5591 C   0  0  0  0  0  0  0  0  0  0  0  0
   -2.4245    2.0907   25.1612 O   0  0  0  0  0  0  0  0  0  0  0  0
   -0.7057    1.8500   27.8527 O   0  0  0  0  0  0  0  0  0  0  0  0
    0.1449    0.8940   28.3717 N   0  0  0  0  0  0  0  0  0  0  0  0
    1.8354   -0.3328   28.6017 H   0  0  0  0  0  0  0  0  0  0  0  0
    3.3936   -1.5110   29.7770 H   0  0  0  0  0  0  0  0  0  0  0  0
    1.1685   -3.5961   30.3037 H   0  0  0  0  0  0  0  0  0  0  0  0
    2.6873   -3.4429   31.1950 H   0  0  0  0  0  0  0  0  0  0  0  0
    0.8756   -1.2918   30.9759 H   0  0  0  0  0  0  0  0  0  0  0  0
    2.3547   -3.7290   27.9044 H   0  0  0  0  0  0  0  0  0  0  0  0
    3.7342   -3.9575   28.9730 H   0  0  0  0  0  0  0  0  0  0  0  0
    5.3705   -4.4432   26.6587 H   0  0  0  0  0  0  0  0  0  0  0  0
    6.4039   -2.7282   25.1316 H   0  0  0  0  0  0  0  0  0  0  0  0
    5.2859   -0.4237   25.3877 H   0  0  0  0  0  0  0  0  0  0  0  0
   -2.2702   -0.8906   26.9710 H   0  0  0  0  0  0  0  0  0  0  0  0
   -2.6530    3.1511   26.9106 H   0  0  0  0  0  0  0  0  0  0  0  0
   -3.7392    1.7551   26.7119 H   0  0  0  0  0  0  0  0  0  0  0  0
   -3.2645    2.3123   24.7089 H   0  0  0  0  0  0  0  0  0  0  0  0
  1  2  2  0
  2  3  1  0
  3  4  1  0
  4  5  1  0
  5  6  1  0
  4  7  1  0
  7  8  1  0
  8  9  2  0
  9 10  1  0
 10 11  1  0
 11 12  2  0
  2 13  1  0
 13 14  1  0
 14 15  2  0
 15 16  1  0
 16 17  1  0
 15 18  1  0
 18 19  1  0
 12  8  1  0
 19 13  2  0
  3 20  1  0
  4 21  1  0
  5 22  1  0
  5 23  1  0
  6 24  1  0
  7 25  1  0
  7 26  1  0
  9 27  1  0
 10 28  1  0
 11 29  1  0
 14 30  1  0
 16 31  1  0
 16 32  1  0
 17 33  1  0
M  END
>  <Energy>  (373) 
34.530396499526525

>  <compound_id>  (373) 
54363

>  <target_id>  (373) 
1

>  <reference_id>  (373) 
59

>  <inspiration_ids>  (373) 
[59, 80]

>  <energy_score>  (373) 
-17.680238115632704

>  <distance_score>  (373) 
8.797254355511104

>  <path>  (373) 
/opt/xchem-fragalysis-2/maxwin/BulkDock/SCRATCH/511020/C54363-P59/C54363-P59.minimised.mol

>  <scratch_subdir>  (373) 
/opt/xchem-fragalysis-2/maxwin/BulkDock/SCRATCH/511020/C54363-P59

>  <fragmenstein_runtime>  (373) 
7.126062870025635

>  <fragmenstein_outcome>  (373) 
too moved

>  <fragmenstein_mode>  (373) 
expansion

>  <fragmenstein_error>  (373) 


$$$$
C54363-P80
     RDKit          3D

 33 34  0  0  0  0  0  0  0  0999 V2000
   -0.9042   -0.3209   28.0523 O   0  0  0  0  0  0  0  0  0  0  0  0
    0.1751   -0.7407   28.3499 C   0  0  0  0  0  0  0  0  0  0  0  0
    1.4611   -0.1429   28.2620 N   0  0  0  0  0  0  0  0  0  0  0  0
    1.8621    1.1875   27.8782 C   0  0  0  0  0  0  0  0  0  0  0  0
    1.0654    2.1969   28.7687 C   0  0  0  0  0  0  0  0  0  0  0  0
    1.0342    1.8265   30.1545 O   0  0  0  0  0  0  0  0  0  0  0  0
    3.3935    1.3926   27.9532 C   0  0  0  0  0  0  0  0  0  0  0  0
    4.2835    0.3841   27.2541 C   0  0  0  0  0  0  0  0  0  0  0  0
    4.0124   -0.6307   26.3582 C   0  0  0  0  0  0  0  0  0  0  0  0
    5.1641   -1.3650   26.2705 N   0  0  0  0  0  0  0  0  0  0  0  0
    6.0994   -0.7525   27.0541 C   0  0  0  0  0  0  0  0  0  0  0  0
    5.6258    0.3479   27.5896 N   0  0  0  0  0  0  0  0  0  0  0  0
    0.3025   -2.0443   29.0110 C   0  0  0  0  0  0  0  0  0  0  0  0
   -0.6861   -2.7316   29.7530 C   0  0  0  0  0  0  0  0  0  0  0  0
    0.0096   -3.7373   30.3733 C   0  0  0  0  0  0  0  0  0  0  0  0
   -0.3071   -4.7484   31.3862 C   0  0  0  0  0  0  0  0  0  0  0  0
    0.4124   -4.4320   32.5698 O   0  0  0  0  0  0  0  0  0  0  0  0
    1.2966   -3.7300   29.9469 O   0  0  0  0  0  0  0  0  0  0  0  0
    1.4906   -2.6691   29.0990 N   0  0  0  0  0  0  0  0  0  0  0  0
    2.1655   -0.8307   28.5311 H   0  0  0  0  0  0  0  0  0  0  0  0
    1.5418    1.3436   26.8437 H   0  0  0  0  0  0  0  0  0  0  0  0
    0.0252    2.2445   28.4277 H   0  0  0  0  0  0  0  0  0  0  0  0
    1.4949    3.2005   28.6820 H   0  0  0  0  0  0  0  0  0  0  0  0
    0.5568    2.5357   30.6163 H   0  0  0  0  0  0  0  0  0  0  0  0
    3.6897    1.3979   29.0111 H   0  0  0  0  0  0  0  0  0  0  0  0
    3.6376    2.3859   27.5560 H   0  0  0  0  0  0  0  0  0  0  0  0
    3.1144   -0.9579   25.8565 H   0  0  0  0  0  0  0  0  0  0  0  0
    5.2981   -2.2497   25.7891 H   0  0  0  0  0  0  0  0  0  0  0  0
    7.0974   -1.1515   27.1741 H   0  0  0  0  0  0  0  0  0  0  0  0
   -1.7176   -2.4452   29.8889 H   0  0  0  0  0  0  0  0  0  0  0  0
   -1.3683   -4.7504   31.6368 H   0  0  0  0  0  0  0  0  0  0  0  0
   -0.0233   -5.7519   31.0559 H   0  0  0  0  0  0  0  0  0  0  0  0
    1.3369   -4.2626   32.3121 H   0  0  0  0  0  0  0  0  0  0  0  0
  1  2  2  0
  2  3  1  0
  3  4  1  0
  4  5  1  0
  5  6  1  0
  4  7  1  0
  7  8  1  0
  8  9  2  0
  9 10  1  0
 10 11  1  0
 11 12  2  0
  2 13  1  0
 13 14  1  0
 14 15  2  0
 15 16  1  0
 16 17  1  0
 15 18  1  0
 18 19  1  0
 12  8  1  0
 19 13  2  0
  3 20  1  0
  4 21  1  0
  5 22  1  0
  5 23  1  0
  6 24  1  0
  7 25  1  0
  7 26  1  0
  9 27  1  0
 10 28  1  0
 11 29  1  0
 14 30  1  0
 16 31  1  0
 16 32  1  0
 17 33  1  0
M  END
>  <Energy>  (374) 
40.415025203095574

>  <compound_id>  (374) 
54363

>  <target_id>  (374) 
1

>  <reference_id>  (374) 
80

>  <inspiration_ids>  (374) 
[59, 80]

>  <energy_score>  (374) 
-11.795609412062902

>  <distance_score>  (374) 
9.264840454332804

>  <path>  (374) 
/opt/xchem-fragalysis-2/maxwin/BulkDock/SCRATCH/511020/C54363-P80/C54363-P80.minimised.mol

>  <scratch_subdir>  (374) 
/opt/xchem-fragalysis-2/maxwin/BulkDock/SCRATCH/511020/C54363-P80

>  <fragmenstein_runtime>  (374) 
7.894779682159424

>  <fragmenstein_outcome>  (374) 
too moved

>  <fragmenstein_mode>  (374) 
expansion

>  <fragmenstein_error>  (374) 


$$$$
C54364-P59
     RDKit          3D

 39 41  0  0  0  0  0  0  0  0999 V2000
    6.0729   -9.0583   17.7122 O   0  0  0  0  0  0  0  0  0  0  0  0
    5.1494   -8.3012   17.7047 C   0  0  0  0  0  0  0  0  0  0  0  0
    5.1021   -6.8938   17.4907 N   0  0  0  0  0  0  0  0  0  0  0  0
    6.1757   -5.9043   17.3129 C   0  0  0  0  0  0  0  0  0  0  0  0
    6.3936   -5.3868   18.7723 C   0  0  0  0  0  0  0  0  0  0  0  0
    7.1786   -6.2017   19.6518 O   0  0  0  0  0  0  0  0  0  0  0  0
    7.2204   -5.5621   15.9377 C   0  0  0  0  0  0  0  0  0  0  0  0
    8.3104   -3.8886   15.5199 C   0  0  0  0  0  0  0  0  0  0  0  0
    9.6789   -3.5531   15.1041 C   0  0  0  0  0  0  0  0  0  0  0  0
    9.7304   -2.1936   14.8623 N   0  0  0  0  0  0  0  0  0  0  0  0
    8.4567   -1.7194   14.8904 C   0  0  0  0  0  0  0  0  0  0  0  0
    7.6051   -2.6657   15.1916 N   0  0  0  0  0  0  0  0  0  0  0  0
    3.7450   -8.7605   18.0653 C   0  0  0  0  0  0  0  0  0  0  0  0
    2.4755   -8.1158   17.8281 C   0  0  0  0  0  0  0  0  0  0  0  0
    1.6111   -8.6489   18.7551 C   0  0  0  0  0  0  0  0  0  0  0  0
    0.1279   -8.2596   18.9825 C   0  0  0  0  0  0  0  0  0  0  0  0
   -0.1357   -6.8365   19.5209 C   0  0  0  0  0  0  0  0  0  0  0  0
   -1.2590   -7.4549   20.3828 C   0  0  0  0  0  0  0  0  0  0  0  0
   -0.4889   -8.7854   20.3019 C   0  0  0  0  0  0  0  0  0  0  0  0
    2.2655   -9.6117   19.4511 O   0  0  0  0  0  0  0  0  0  0  0  0
    3.5761   -9.6976   19.0210 N   0  0  0  0  0  0  0  0  0  0  0  0
    4.1573   -6.5702   17.6395 H   0  0  0  0  0  0  0  0  0  0  0  0
    5.3814   -5.2249   16.9604 H   0  0  0  0  0  0  0  0  0  0  0  0
    5.3774   -5.0883   19.0597 H   0  0  0  0  0  0  0  0  0  0  0  0
    6.7993   -4.4515   19.0381 H   0  0  0  0  0  0  0  0  0  0  0  0
    7.2346   -5.8142   20.5436 H   0  0  0  0  0  0  0  0  0  0  0  0
    7.6228   -6.4899   15.4989 H   0  0  0  0  0  0  0  0  0  0  0  0
    6.2657   -5.4477   15.4120 H   0  0  0  0  0  0  0  0  0  0  0  0
   10.5924   -4.1303   15.0172 H   0  0  0  0  0  0  0  0  0  0  0  0
   10.5159   -1.6905   14.4755 H   0  0  0  0  0  0  0  0  0  0  0  0
    8.2061   -0.7045   14.6132 H   0  0  0  0  0  0  0  0  0  0  0  0
    2.2527   -7.3140   17.1397 H   0  0  0  0  0  0  0  0  0  0  0  0
   -0.4896   -8.5015   18.1068 H   0  0  0  0  0  0  0  0  0  0  0  0
   -0.4665   -6.1036   18.7798 H   0  0  0  0  0  0  0  0  0  0  0  0
    0.6793   -6.3998   20.1057 H   0  0  0  0  0  0  0  0  0  0  0  0
   -2.2356   -7.4770   19.8860 H   0  0  0  0  0  0  0  0  0  0  0  0
   -1.3778   -7.0482   21.3891 H   0  0  0  0  0  0  0  0  0  0  0  0
    0.2194   -8.9249   21.1274 H   0  0  0  0  0  0  0  0  0  0  0  0
   -1.1084   -9.6818   20.2122 H   0  0  0  0  0  0  0  0  0  0  0  0
  1  2  2  0
  2  3  1  0
  3  4  1  0
  4  5  1  0
  5  6  1  0
  4  7  1  0
  7  8  1  0
  8  9  2  0
  9 10  1  0
 10 11  1  0
 11 12  2  0
  2 13  1  0
 13 14  1  0
 14 15  2  0
 15 16  1  0
 16 17  1  0
 17 18  1  0
 18 19  1  0
 15 20  1  0
 20 21  1  0
 12  8  1  0
 21 13  2  0
 19 16  1  0
  3 22  1  0
  4 23  1  0
  5 24  1  0
  5 25  1  0
  6 26  1  0
  7 27  1  0
  7 28  1  0
  9 29  1  0
 10 30  1  0
 11 31  1  0
 14 32  1  0
 16 33  1  0
 17 34  1  0
 17 35  1  0
 18 36  1  0
 18 37  1  0
 19 38  1  0
 19 39  1  0
M  END
>  <Energy>  (375) 
229.59305500471197

>  <compound_id>  (375) 
54364

>  <target_id>  (375) 
1

>  <reference_id>  (375) 
59

>  <inspiration_ids>  (375) 
[59, 80]

>  <energy_score>  (375) 
154.27660307658545

>  <distance_score>  (375) 
14.458825611175666

>  <path>  (375) 
/opt/xchem-fragalysis-2/maxwin/BulkDock/SCRATCH/511020/C54364-P59/C54364-P59.minimised.mol

>  <scratch_subdir>  (375) 
/opt/xchem-fragalysis-2/maxwin/BulkDock/SCRATCH/511020/C54364-P59

>  <fragmenstein_runtime>  (375) 
9.651265621185303

>  <fragmenstein_outcome>  (375) 
too moved

>  <fragmenstein_mode>  (375) 
expansion

>  <fragmenstein_error>  (375) 


$$$$
C54364-P80
     RDKit          3D

 39 41  0  0  0  0  0  0  0  0999 V2000
    0.9811    0.2837   31.4468 O   0  0  0  0  0  0  0  0  0  0  0  0
    1.2707    0.4088   30.2948 C   0  0  0  0  0  0  0  0  0  0  0  0
    2.1286   -0.3684   29.4603 N   0  0  0  0  0  0  0  0  0  0  0  0
    2.8381   -1.6002   29.7168 C   0  0  0  0  0  0  0  0  0  0  0  0
    1.8320   -2.7738   29.5980 C   0  0  0  0  0  0  0  0  0  0  0  0
    0.7268   -2.6618   30.5222 O   0  0  0  0  0  0  0  0  0  0  0  0
    4.1598   -1.7221   28.9258 C   0  0  0  0  0  0  0  0  0  0  0  0
    4.1296   -1.4929   27.4447 C   0  0  0  0  0  0  0  0  0  0  0  0
    4.6824   -0.4711   26.6931 C   0  0  0  0  0  0  0  0  0  0  0  0
    4.4433   -0.8101   25.3892 N   0  0  0  0  0  0  0  0  0  0  0  0
    3.8140   -2.0116   25.3995 C   0  0  0  0  0  0  0  0  0  0  0  0
    3.5518   -2.4154   26.6205 N   0  0  0  0  0  0  0  0  0  0  0  0
    0.6091    1.4533   29.5033 C   0  0  0  0  0  0  0  0  0  0  0  0
   -0.0105    1.3070   28.2338 C   0  0  0  0  0  0  0  0  0  0  0  0
   -0.4543    2.5662   27.9287 C   0  0  0  0  0  0  0  0  0  0  0  0
   -1.2051    2.9662   26.6412 C   0  0  0  0  0  0  0  0  0  0  0  0
   -2.6668    2.4681   26.5810 C   0  0  0  0  0  0  0  0  0  0  0  0
   -3.0127    3.7990   25.8845 C   0  0  0  0  0  0  0  0  0  0  0  0
   -1.7897    4.4002   26.6104 C   0  0  0  0  0  0  0  0  0  0  0  0
   -0.1346    3.4122   28.9406 O   0  0  0  0  0  0  0  0  0  0  0  0
    0.5024    2.7130   29.9476 N   0  0  0  0  0  0  0  0  0  0  0  0
    2.0728   -0.0168   28.5102 H   0  0  0  0  0  0  0  0  0  0  0  0
    3.1113   -1.5538   30.7801 H   0  0  0  0  0  0  0  0  0  0  0  0
    2.3342   -3.7235   29.8075 H   0  0  0  0  0  0  0  0  0  0  0  0
    1.4071   -2.8244   28.5901 H   0  0  0  0  0  0  0  0  0  0  0  0
    0.9122   -1.9256   31.1368 H   0  0  0  0  0  0  0  0  0  0  0  0
    4.8667   -0.9957   29.3508 H   0  0  0  0  0  0  0  0  0  0  0  0
    4.5977   -2.7101   29.1154 H   0  0  0  0  0  0  0  0  0  0  0  0
    5.2278    0.4198   26.9647 H   0  0  0  0  0  0  0  0  0  0  0  0
    4.6453   -0.2839   24.5428 H   0  0  0  0  0  0  0  0  0  0  0  0
    3.5438   -2.5207   24.4885 H   0  0  0  0  0  0  0  0  0  0  0  0
   -0.1179    0.4071   27.6454 H   0  0  0  0  0  0  0  0  0  0  0  0
   -0.6317    2.7262   25.7360 H   0  0  0  0  0  0  0  0  0  0  0  0
   -3.1416    2.3475   27.5586 H   0  0  0  0  0  0  0  0  0  0  0  0
   -2.8365    1.5614   26.0004 H   0  0  0  0  0  0  0  0  0  0  0  0
   -3.9819    4.2336   26.1402 H   0  0  0  0  0  0  0  0  0  0  0  0
   -2.9086    3.7679   24.7939 H   0  0  0  0  0  0  0  0  0  0  0  0
   -2.0350    4.8283   27.5893 H   0  0  0  0  0  0  0  0  0  0  0  0
   -1.2174    5.1338   26.0363 H   0  0  0  0  0  0  0  0  0  0  0  0
  1  2  2  0
  2  3  1  0
  3  4  1  0
  4  5  1  0
  5  6  1  0
  4  7  1  0
  7  8  1  0
  8  9  2  0
  9 10  1  0
 10 11  1  0
 11 12  2  0
  2 13  1  0
 13 14  1  0
 14 15  2  0
 15 16  1  0
 16 17  1  0
 17 18  1  0
 18 19  1  0
 15 20  1  0
 20 21  1  0
 12  8  1  0
 21 13  2  0
 19 16  1  0
  3 22  1  0
  4 23  1  0
  5 24  1  0
  5 25  1  0
  6 26  1  0
  7 27  1  0
  7 28  1  0
  9 29  1  0
 10 30  1  0
 11 31  1  0
 14 32  1  0
 16 33  1  0
 17 34  1  0
 17 35  1  0
 18 36  1  0
 18 37  1  0
 19 38  1  0
 19 39  1  0
M  END
>  <Energy>  (376) 
52.679144573256394

>  <compound_id>  (376) 
54364

>  <target_id>  (376) 
1

>  <reference_id>  (376) 
80

>  <inspiration_ids>  (376) 
[59, 80]

>  <energy_score>  (376) 
-22.637307354870927

>  <distance_score>  (376) 
9.068308249471114

>  <path>  (376) 
/opt/xchem-fragalysis-2/maxwin/BulkDock/SCRATCH/511020/C54364-P80/C54364-P80.minimised.mol

>  <scratch_subdir>  (376) 
/opt/xchem-fragalysis-2/maxwin/BulkDock/SCRATCH/511020/C54364-P80

>  <fragmenstein_runtime>  (376) 
11.200541019439697

>  <fragmenstein_outcome>  (376) 
too moved

>  <fragmenstein_mode>  (376) 
expansion

>  <fragmenstein_error>  (376) 


$$$$
C54365-P59
     RDKit          3D

 36 37  0  0  0  0  0  0  0  0999 V2000
   -1.2536    3.6967   27.5428 C   0  0  0  0  0  0  0  0  0  0  0  0
   -1.4269    2.5368   26.7330 O   0  0  0  0  0  0  0  0  0  0  0  0
   -2.2534    1.5581   27.3788 C   0  0  0  0  0  0  0  0  0  0  0  0
   -1.3994    0.4769   27.8574 C   0  0  0  0  0  0  0  0  0  0  0  0
   -0.1672    0.0581   27.4673 C   0  0  0  0  0  0  0  0  0  0  0  0
    0.0716   -1.0941   28.2124 C   0  0  0  0  0  0  0  0  0  0  0  0
    1.3222   -1.8279   28.3298 C   0  0  0  0  0  0  0  0  0  0  0  0
    1.3379   -2.9929   28.4033 O   0  0  0  0  0  0  0  0  0  0  0  0
    2.4735   -0.8019   28.4362 N   0  0  0  0  0  0  0  0  0  0  0  0
    3.8754   -0.9899   28.7524 C   0  0  0  0  0  0  0  0  0  0  0  0
    3.4478   -1.6296   30.3278 C   0  0  0  0  0  0  0  0  0  0  0  0
    2.2009   -1.1450   31.0065 O   0  0  0  0  0  0  0  0  0  0  0  0
    4.7736   -1.8391   27.6061 C   0  0  0  0  0  0  0  0  0  0  0  0
    6.2168   -1.4146   26.7687 C   0  0  0  0  0  0  0  0  0  0  0  0
    7.3292   -2.2443   26.5910 C   0  0  0  0  0  0  0  0  0  0  0  0
    8.3234   -1.5154   25.9806 N   0  0  0  0  0  0  0  0  0  0  0  0
    7.8173   -0.2707   25.7891 C   0  0  0  0  0  0  0  0  0  0  0  0
    6.5249   -0.2179   26.0975 N   0  0  0  0  0  0  0  0  0  0  0  0
   -0.9142   -1.2944   29.1142 N   0  0  0  0  0  0  0  0  0  0  0  0
   -1.8476   -0.3017   28.8707 O   0  0  0  0  0  0  0  0  0  0  0  0
   -0.7806    3.4336   28.4936 H   0  0  0  0  0  0  0  0  0  0  0  0
   -2.2161    4.1873   27.7166 H   0  0  0  0  0  0  0  0  0  0  0  0
   -0.6002    4.3917   27.0087 H   0  0  0  0  0  0  0  0  0  0  0  0
   -2.9480    1.1743   26.6255 H   0  0  0  0  0  0  0  0  0  0  0  0
   -2.8352    1.9998   28.1849 H   0  0  0  0  0  0  0  0  0  0  0  0
    0.4664    0.5389   26.7442 H   0  0  0  0  0  0  0  0  0  0  0  0
    2.0938    0.1368   28.4079 H   0  0  0  0  0  0  0  0  0  0  0  0
    4.3172    0.0005   28.9017 H   0  0  0  0  0  0  0  0  0  0  0  0
    4.2868   -1.4031   30.9936 H   0  0  0  0  0  0  0  0  0  0  0  0
    3.3686   -2.7193   30.2363 H   0  0  0  0  0  0  0  0  0  0  0  0
    1.5247   -1.8258   30.8359 H   0  0  0  0  0  0  0  0  0  0  0  0
    4.0907   -2.0718   26.7784 H   0  0  0  0  0  0  0  0  0  0  0  0
    5.0401   -2.7881   28.0909 H   0  0  0  0  0  0  0  0  0  0  0  0
    7.5014   -3.2685   26.8899 H   0  0  0  0  0  0  0  0  0  0  0  0
    9.2647   -1.8327   25.7935 H   0  0  0  0  0  0  0  0  0  0  0  0
    8.4386    0.5458   25.4530 H   0  0  0  0  0  0  0  0  0  0  0  0
  1  2  1  0
  2  3  1  0
  3  4  1  0
  4  5  2  0
  5  6  1  0
  6  7  1  0
  7  8  2  0
  7  9  1  0
  9 10  1  0
 10 11  1  0
 11 12  1  0
 10 13  1  0
 13 14  1  0
 14 15  2  0
 15 16  1  0
 16 17  1  0
 17 18  2  0
  6 19  2  0
 19 20  1  0
 20  4  1  0
 18 14  1  0
  1 21  1  0
  1 22  1  0
  1 23  1  0
  3 24  1  0
  3 25  1  0
  5 26  1  0
  9 27  1  0
 10 28  1  0
 11 29  1  0
 11 30  1  0
 12 31  1  0
 13 32  1  0
 13 33  1  0
 15 34  1  0
 16 35  1  0
 17 36  1  0
M  END
>  <Energy>  (377) 
133.34096195670051

>  <compound_id>  (377) 
54365

>  <target_id>  (377) 
1

>  <reference_id>  (377) 
59

>  <inspiration_ids>  (377) 
[59, 80]

>  <energy_score>  (377) 
64.10196026599925

>  <distance_score>  (377) 
8.547120413914408

>  <path>  (377) 
/opt/xchem-fragalysis-2/maxwin/BulkDock/SCRATCH/511020/C54365-P59/C54365-P59.minimised.mol

>  <scratch_subdir>  (377) 
/opt/xchem-fragalysis-2/maxwin/BulkDock/SCRATCH/511020/C54365-P59

>  <fragmenstein_runtime>  (377) 
6.054376125335693

>  <fragmenstein_outcome>  (377) 
too moved

>  <fragmenstein_mode>  (377) 
expansion

>  <fragmenstein_error>  (377) 


$$$$
C54365-P80
     RDKit          3D

 36 37  0  0  0  0  0  0  0  0999 V2000
   -0.5739    3.2788   25.4342 C   0  0  0  0  0  0  0  0  0  0  0  0
   -1.7553    3.4675   26.1949 O   0  0  0  0  0  0  0  0  0  0  0  0
   -2.2723    2.2815   26.8012 C   0  0  0  0  0  0  0  0  0  0  0  0
   -1.4927    1.9209   27.9873 C   0  0  0  0  0  0  0  0  0  0  0  0
   -1.2777    0.7213   28.5907 C   0  0  0  0  0  0  0  0  0  0  0  0
   -0.1163    0.9890   29.3537 C   0  0  0  0  0  0  0  0  0  0  0  0
    0.7791   -0.0401   29.7918 C   0  0  0  0  0  0  0  0  0  0  0  0
    1.2047   -0.1033   30.8749 O   0  0  0  0  0  0  0  0  0  0  0  0
    0.9275   -1.0083   28.6019 N   0  0  0  0  0  0  0  0  0  0  0  0
    1.5407   -2.2826   28.5239 C   0  0  0  0  0  0  0  0  0  0  0  0
    0.9719   -2.9544   29.9872 C   0  0  0  0  0  0  0  0  0  0  0  0
   -0.3530   -2.5555   30.5158 O   0  0  0  0  0  0  0  0  0  0  0  0
    3.1104   -2.2052   28.2136 C   0  0  0  0  0  0  0  0  0  0  0  0
    3.9228   -1.8101   26.8170 C   0  0  0  0  0  0  0  0  0  0  0  0
    5.2593   -1.4308   26.8463 C   0  0  0  0  0  0  0  0  0  0  0  0
    5.7095   -1.6343   25.5874 N   0  0  0  0  0  0  0  0  0  0  0  0
    4.6576   -1.7501   24.7545 C   0  0  0  0  0  0  0  0  0  0  0  0
    3.5696   -1.9499   25.4720 N   0  0  0  0  0  0  0  0  0  0  0  0
    0.0849    2.2895   29.5373 N   0  0  0  0  0  0  0  0  0  0  0  0
   -0.7556    2.8828   28.6068 O   0  0  0  0  0  0  0  0  0  0  0  0
   -0.2118    4.2598   25.1150 H   0  0  0  0  0  0  0  0  0  0  0  0
    0.2134    2.7925   26.0168 H   0  0  0  0  0  0  0  0  0  0  0  0
   -0.7979    2.6918   24.5399 H   0  0  0  0  0  0  0  0  0  0  0  0
   -3.3056    2.4918   27.0898 H   0  0  0  0  0  0  0  0  0  0  0  0
   -2.2953    1.4685   26.0700 H   0  0  0  0  0  0  0  0  0  0  0  0
   -1.7000   -0.2369   28.3190 H   0  0  0  0  0  0  0  0  0  0  0  0
    0.4950   -0.6038   27.7809 H   0  0  0  0  0  0  0  0  0  0  0  0
    1.0431   -2.8289   27.7187 H   0  0  0  0  0  0  0  0  0  0  0  0
    1.7142   -2.7407   30.7655 H   0  0  0  0  0  0  0  0  0  0  0  0
    0.9482   -4.0404   29.8468 H   0  0  0  0  0  0  0  0  0  0  0  0
   -0.1478   -1.8705   31.1823 H   0  0  0  0  0  0  0  0  0  0  0  0
    3.5128   -3.1856   28.4789 H   0  0  0  0  0  0  0  0  0  0  0  0
    3.5292   -1.5048   28.9520 H   0  0  0  0  0  0  0  0  0  0  0  0
    5.9352   -1.3003   27.6781 H   0  0  0  0  0  0  0  0  0  0  0  0
    6.6374   -1.9845   25.4557 H   0  0  0  0  0  0  0  0  0  0  0  0
    4.7325   -1.7801   23.6844 H   0  0  0  0  0  0  0  0  0  0  0  0
  1  2  1  0
  2  3  1  0
  3  4  1  0
  4  5  2  0
  5  6  1  0
  6  7  1  0
  7  8  2  0
  7  9  1  0
  9 10  1  0
 10 11  1  0
 11 12  1  0
 10 13  1  0
 13 14  1  0
 14 15  2  0
 15 16  1  0
 16 17  1  0
 17 18  2  0
  6 19  2  0
 19 20  1  0
 20  4  1  0
 18 14  1  0
  1 21  1  0
  1 22  1  0
  1 23  1  0
  3 24  1  0
  3 25  1  0
  5 26  1  0
  9 27  1  0
 10 28  1  0
 11 29  1  0
 11 30  1  0
 12 31  1  0
 13 32  1  0
 13 33  1  0
 15 34  1  0
 16 35  1  0
 17 36  1  0
M  END
>  <Energy>  (378) 
123.34227837838296

>  <compound_id>  (378) 
54365

>  <target_id>  (378) 
1

>  <reference_id>  (378) 
80

>  <inspiration_ids>  (378) 
[59, 80]

>  <energy_score>  (378) 
54.103276687681756

>  <distance_score>  (378) 
8.55185458179311

>  <path>  (378) 
/opt/xchem-fragalysis-2/maxwin/BulkDock/SCRATCH/511020/C54365-P80/C54365-P80.minimised.mol

>  <scratch_subdir>  (378) 
/opt/xchem-fragalysis-2/maxwin/BulkDock/SCRATCH/511020/C54365-P80

>  <fragmenstein_runtime>  (378) 
5.346448659896851

>  <fragmenstein_outcome>  (378) 
too moved

>  <fragmenstein_mode>  (378) 
expansion

>  <fragmenstein_error>  (378) 


$$$$
C54366-P59
     RDKit          3D

 35 36  0  0  0  0  0  0  0  0999 V2000
   -1.5005   -1.5325   32.3964 C   0  0  0  0  0  0  0  0  0  0  0  0
   -2.2051   -1.6446   31.0552 C   0  0  0  0  0  0  0  0  0  0  0  0
   -3.0827   -0.6044   30.9715 F   0  0  0  0  0  0  0  0  0  0  0  0
   -2.9562   -2.7778   31.0762 F   0  0  0  0  0  0  0  0  0  0  0  0
   -1.2508   -1.6210   29.9320 C   0  0  0  0  0  0  0  0  0  0  0  0
   -0.8398   -0.6496   29.0507 C   0  0  0  0  0  0  0  0  0  0  0  0
    0.4227   -1.1291   28.5883 C   0  0  0  0  0  0  0  0  0  0  0  0
    1.6172   -0.3559   28.1450 C   0  0  0  0  0  0  0  0  0  0  0  0
    2.4721   -0.8993   27.5142 O   0  0  0  0  0  0  0  0  0  0  0  0
    1.5491    0.9737   28.6786 N   0  0  0  0  0  0  0  0  0  0  0  0
    2.5318    2.0406   28.7070 C   0  0  0  0  0  0  0  0  0  0  0  0
    3.4360    1.7430   29.9165 C   0  0  0  0  0  0  0  0  0  0  0  0
    2.6140    1.3991   31.0628 O   0  0  0  0  0  0  0  0  0  0  0  0
    3.2235    2.5422   27.4261 C   0  0  0  0  0  0  0  0  0  0  0  0
    4.0562    1.6445   26.5706 C   0  0  0  0  0  0  0  0  0  0  0  0
    3.9557    1.4920   25.2055 C   0  0  0  0  0  0  0  0  0  0  0  0
    4.8221    0.4906   24.8886 N   0  0  0  0  0  0  0  0  0  0  0  0
    5.5372    0.2022   26.0122 C   0  0  0  0  0  0  0  0  0  0  0  0
    5.1286    0.9225   27.0367 N   0  0  0  0  0  0  0  0  0  0  0  0
    0.5697   -2.4231   28.9298 N   0  0  0  0  0  0  0  0  0  0  0  0
   -0.4758   -2.7210   29.7754 O   0  0  0  0  0  0  0  0  0  0  0  0
   -2.2379   -1.5312   33.2060 H   0  0  0  0  0  0  0  0  0  0  0  0
   -0.8256   -2.3779   32.5664 H   0  0  0  0  0  0  0  0  0  0  0  0
   -0.9268   -0.6024   32.4694 H   0  0  0  0  0  0  0  0  0  0  0  0
   -1.2558    0.3440   28.9669 H   0  0  0  0  0  0  0  0  0  0  0  0
    0.7113    1.0642   29.2305 H   0  0  0  0  0  0  0  0  0  0  0  0
    1.9182    2.8958   29.0288 H   0  0  0  0  0  0  0  0  0  0  0  0
    4.1176    0.9076   29.7239 H   0  0  0  0  0  0  0  0  0  0  0  0
    4.0293    2.6227   30.1841 H   0  0  0  0  0  0  0  0  0  0  0  0
    2.5070    0.4325   31.0050 H   0  0  0  0  0  0  0  0  0  0  0  0
    2.4311    2.9541   26.7843 H   0  0  0  0  0  0  0  0  0  0  0  0
    3.8548    3.3995   27.6972 H   0  0  0  0  0  0  0  0  0  0  0  0
    3.2991    1.9301   24.4699 H   0  0  0  0  0  0  0  0  0  0  0  0
    4.8543    0.0291   23.9886 H   0  0  0  0  0  0  0  0  0  0  0  0
    6.3173   -0.5470   26.0378 H   0  0  0  0  0  0  0  0  0  0  0  0
  1  2  1  0
  2  3  1  0
  2  4  1  0
  2  5  1  0
  5  6  2  0
  6  7  1  0
  7  8  1  0
  8  9  2  0
  8 10  1  0
 10 11  1  0
 11 12  1  0
 12 13  1  0
 11 14  1  0
 14 15  1  0
 15 16  2  0
 16 17  1  0
 17 18  1  0
 18 19  2  0
  7 20  2  0
 20 21  1  0
 21  5  1  0
 19 15  1  0
  1 22  1  0
  1 23  1  0
  1 24  1  0
  6 25  1  0
 10 26  1  0
 11 27  1  0
 12 28  1  0
 12 29  1  0
 13 30  1  0
 14 31  1  0
 14 32  1  0
 16 33  1  0
 17 34  1  0
 18 35  1  0
M  END
>  <Energy>  (379) 
71.403605409009756

>  <compound_id>  (379) 
54366

>  <target_id>  (379) 
1

>  <reference_id>  (379) 
59

>  <inspiration_ids>  (379) 
[59, 80]

>  <energy_score>  (379) 
-3.404942900445178

>  <distance_score>  (379) 
9.378650056945489

>  <path>  (379) 
/opt/xchem-fragalysis-2/maxwin/BulkDock/SCRATCH/511020/C54366-P59/C54366-P59.minimised.mol

>  <scratch_subdir>  (379) 
/opt/xchem-fragalysis-2/maxwin/BulkDock/SCRATCH/511020/C54366-P59

>  <fragmenstein_runtime>  (379) 
10.935710906982422

>  <fragmenstein_outcome>  (379) 
too moved

>  <fragmenstein_mode>  (379) 
expansion

>  <fragmenstein_error>  (379) 


$$$$
C54366-P80
     RDKit          3D

 35 36  0  0  0  0  0  0  0  0999 V2000
   -1.2937    1.3647   28.1200 C   0  0  0  0  0  0  0  0  0  0  0  0
   -0.8655    0.7408   29.4369 C   0  0  0  0  0  0  0  0  0  0  0  0
    0.0667    1.5464   30.0156 F   0  0  0  0  0  0  0  0  0  0  0  0
   -1.9371    0.7511   30.2814 F   0  0  0  0  0  0  0  0  0  0  0  0
   -0.3402   -0.6259   29.2445 C   0  0  0  0  0  0  0  0  0  0  0  0
    0.8122   -1.1360   28.7003 C   0  0  0  0  0  0  0  0  0  0  0  0
    0.5777   -2.5313   28.6176 C   0  0  0  0  0  0  0  0  0  0  0  0
    1.3964   -3.5103   27.8733 C   0  0  0  0  0  0  0  0  0  0  0  0
    2.5444   -3.2612   27.6649 O   0  0  0  0  0  0  0  0  0  0  0  0
    0.5830   -4.6046   27.4376 N   0  0  0  0  0  0  0  0  0  0  0  0
    0.8775   -5.7509   26.4908 C   0  0  0  0  0  0  0  0  0  0  0  0
    0.1332   -7.0207   27.2262 C   0  0  0  0  0  0  0  0  0  0  0  0
   -1.0712   -6.5539   27.8949 O   0  0  0  0  0  0  0  0  0  0  0  0
    2.4060   -5.5965   25.1181 C   0  0  0  0  0  0  0  0  0  0  0  0
    3.2499   -7.3016   24.2746 C   0  0  0  0  0  0  0  0  0  0  0  0
    4.5703   -7.8367   23.9252 C   0  0  0  0  0  0  0  0  0  0  0  0
    4.4297   -9.0527   23.3011 N   0  0  0  0  0  0  0  0  0  0  0  0
    3.1083   -9.3540   23.2306 C   0  0  0  0  0  0  0  0  0  0  0  0
    2.3671   -8.4472   23.8335 N   0  0  0  0  0  0  0  0  0  0  0  0
   -0.5882   -2.8516   29.2102 N   0  0  0  0  0  0  0  0  0  0  0  0
   -1.1586   -1.6519   29.5959 O   0  0  0  0  0  0  0  0  0  0  0  0
   -1.6979    2.3674   28.2877 H   0  0  0  0  0  0  0  0  0  0  0  0
   -0.4484    1.4623   27.4304 H   0  0  0  0  0  0  0  0  0  0  0  0
   -2.0746    0.7707   27.6332 H   0  0  0  0  0  0  0  0  0  0  0  0
    1.6512   -0.5911   28.2897 H   0  0  0  0  0  0  0  0  0  0  0  0
   -0.3375   -4.5337   27.8811 H   0  0  0  0  0  0  0  0  0  0  0  0
    0.0123   -5.7603   25.7916 H   0  0  0  0  0  0  0  0  0  0  0  0
   -0.1718   -7.7742   26.4897 H   0  0  0  0  0  0  0  0  0  0  0  0
    0.7200   -7.5041   28.0097 H   0  0  0  0  0  0  0  0  0  0  0  0
   -1.4802   -7.3421   28.2935 H   0  0  0  0  0  0  0  0  0  0  0  0
    2.6248   -4.4050   25.1767 H   0  0  0  0  0  0  0  0  0  0  0  0
    3.4438   -5.9100   25.2618 H   0  0  0  0  0  0  0  0  0  0  0  0
    5.5610   -7.3994   23.9087 H   0  0  0  0  0  0  0  0  0  0  0  0
    5.1789   -9.5820   22.8801 H   0  0  0  0  0  0  0  0  0  0  0  0
    2.7373  -10.2470   22.7467 H   0  0  0  0  0  0  0  0  0  0  0  0
  1  2  1  0
  2  3  1  0
  2  4  1  0
  2  5  1  0
  5  6  2  0
  6  7  1  0
  7  8  1  0
  8  9  2  0
  8 10  1  0
 10 11  1  0
 11 12  1  0
 12 13  1  0
 11 14  1  0
 14 15  1  0
 15 16  2  0
 16 17  1  0
 17 18  1  0
 18 19  2  0
  7 20  2  0
 20 21  1  0
 21  5  1  0
 19 15  1  0
  1 22  1  0
  1 23  1  0
  1 24  1  0
  6 25  1  0
 10 26  1  0
 11 27  1  0
 12 28  1  0
 12 29  1  0
 13 30  1  0
 14 31  1  0
 14 32  1  0
 16 33  1  0
 17 34  1  0
 18 35  1  0
M  END
>  <Energy>  (380) 
309.08076898025541

>  <compound_id>  (380) 
54366

>  <target_id>  (380) 
1

>  <reference_id>  (380) 
80

>  <inspiration_ids>  (380) 
[59, 80]

>  <energy_score>  (380) 
234.27222067080447

>  <distance_score>  (380) 
9.641192444047581

>  <path>  (380) 
/opt/xchem-fragalysis-2/maxwin/BulkDock/SCRATCH/511020/C54366-P80/C54366-P80.minimised.mol

>  <scratch_subdir>  (380) 
/opt/xchem-fragalysis-2/maxwin/BulkDock/SCRATCH/511020/C54366-P80

>  <fragmenstein_runtime>  (380) 
9.361892461776733

>  <fragmenstein_outcome>  (380) 
too moved

>  <fragmenstein_mode>  (380) 
expansion

>  <fragmenstein_error>  (380) 


$$$$
C54367-P59
     RDKit          3D

 20 21  0  0  0  0  0  0  0  0999 V2000
   12.6282   -4.9436   16.3015 O   0  0  0  0  0  0  0  0  0  0  0  0
   13.4392   -4.1987   17.2393 S   0  0  0  0  0  0  0  0  0  0  0  0
   13.6430   -4.5295   18.6296 O   0  0  0  0  0  0  0  0  0  0  0  0
   12.9392   -2.5844   17.2159 N   0  0  0  0  0  0  0  0  0  0  0  0
   12.7650   -1.9671   15.9725 C   0  0  0  0  0  0  0  0  0  0  0  0
   11.9283   -2.3455   14.9024 C   0  0  0  0  0  0  0  0  0  0  0  0
   12.0327   -1.4993   13.8754 N   0  0  0  0  0  0  0  0  0  0  0  0
   12.9312   -0.5308   14.2807 O   0  0  0  0  0  0  0  0  0  0  0  0
   13.3790   -0.8285   15.5214 C   0  0  0  0  0  0  0  0  0  0  0  0
   15.0593   -4.1142   16.5065 C   0  0  0  0  0  0  0  0  0  0  0  0
   16.0511   -3.3224   16.8909 N   0  0  0  0  0  0  0  0  0  0  0  0
   17.0559   -3.5351   15.9828 C   0  0  0  0  0  0  0  0  0  0  0  0
   16.6568   -4.4192   15.0097 C   0  0  0  0  0  0  0  0  0  0  0  0
   15.3770   -4.7630   15.3424 N   0  0  0  0  0  0  0  0  0  0  0  0
   13.5640   -2.1056   17.8683 H   0  0  0  0  0  0  0  0  0  0  0  0
   11.2519   -3.1861   14.8237 H   0  0  0  0  0  0  0  0  0  0  0  0
   14.1159   -0.1513   15.9246 H   0  0  0  0  0  0  0  0  0  0  0  0
   18.0100   -3.0301   16.0690 H   0  0  0  0  0  0  0  0  0  0  0  0
   17.1491   -4.8090   14.1300 H   0  0  0  0  0  0  0  0  0  0  0  0
   14.7422   -5.3671   14.8329 H   0  0  0  0  0  0  0  0  0  0  0  0
  1  2  2  0
  2  3  2  0
  2  4  1  0
  4  5  1  0
  5  6  1  0
  6  7  2  0
  7  8  1  0
  8  9  1  0
  2 10  1  0
 10 11  2  0
 11 12  1  0
 12 13  2  0
 13 14  1  0
  9  5  2  0
 14 10  1  0
  4 15  1  0
  6 16  1  0
  9 17  1  0
 12 18  1  0
 13 19  1  0
 14 20  1  0
M  END
>  <Energy>  (381) 
2.008223430288365

>  <compound_id>  (381) 
54367

>  <target_id>  (381) 
1

>  <reference_id>  (381) 
59

>  <inspiration_ids>  (381) 
[59, 80]

>  <energy_score>  (381) 
-51.494523532900494

>  <distance_score>  (381) 
1.0040105243410056

>  <path>  (381) 
/opt/xchem-fragalysis-2/maxwin/BulkDock/SCRATCH/511020/C54367-P59/C54367-P59.minimised.mol

>  <scratch_subdir>  (381) 
/opt/xchem-fragalysis-2/maxwin/BulkDock/SCRATCH/511020/C54367-P59

>  <fragmenstein_runtime>  (381) 
2.1318414211273193

>  <fragmenstein_outcome>  (381) 
too moved

>  <fragmenstein_mode>  (381) 
expansion

>  <fragmenstein_error>  (381) 


$$$$
C54367-P80
     RDKit          3D

 20 21  0  0  0  0  0  0  0  0999 V2000
   14.3850   -5.1356   18.2254 O   0  0  0  0  0  0  0  0  0  0  0  0
   14.3282   -3.7497   17.8059 S   0  0  0  0  0  0  0  0  0  0  0  0
   14.3940   -2.6676   18.7626 O   0  0  0  0  0  0  0  0  0  0  0  0
   12.9846   -3.5830   16.8173 N   0  0  0  0  0  0  0  0  0  0  0  0
   12.6249   -2.3770   16.2101 C   0  0  0  0  0  0  0  0  0  0  0  0
   11.6259   -2.1931   15.2291 C   0  0  0  0  0  0  0  0  0  0  0  0
   11.4761   -0.9075   14.8982 N   0  0  0  0  0  0  0  0  0  0  0  0
   12.4248   -0.2258   15.6357 O   0  0  0  0  0  0  0  0  0  0  0  0
   13.1046   -1.1051   16.4098 C   0  0  0  0  0  0  0  0  0  0  0  0
   15.7794   -3.5577   16.8115 C   0  0  0  0  0  0  0  0  0  0  0  0
   15.8329   -3.0977   15.5725 N   0  0  0  0  0  0  0  0  0  0  0  0
   17.1536   -3.1685   15.2134 C   0  0  0  0  0  0  0  0  0  0  0  0
   17.9154   -3.6608   16.2464 C   0  0  0  0  0  0  0  0  0  0  0  0
   17.0295   -3.8998   17.2600 N   0  0  0  0  0  0  0  0  0  0  0  0
   12.6168   -4.4642   16.4615 H   0  0  0  0  0  0  0  0  0  0  0  0
   10.9879   -2.9248   14.7535 H   0  0  0  0  0  0  0  0  0  0  0  0
   13.8688   -0.6703   17.0370 H   0  0  0  0  0  0  0  0  0  0  0  0
   17.4840   -2.8635   14.2281 H   0  0  0  0  0  0  0  0  0  0  0  0
   18.9738   -3.8576   16.3433 H   0  0  0  0  0  0  0  0  0  0  0  0
   17.2339   -4.2761   18.1770 H   0  0  0  0  0  0  0  0  0  0  0  0
  1  2  2  0
  2  3  2  0
  2  4  1  0
  4  5  1  0
  5  6  1  0
  6  7  2  0
  7  8  1  0
  8  9  1  0
  2 10  1  0
 10 11  2  0
 11 12  1  0
 12 13  2  0
 13 14  1  0
  9  5  2  0
 14 10  1  0
  4 15  1  0
  6 16  1  0
  9 17  1  0
 12 18  1  0
 13 19  1  0
 14 20  1  0
M  END
>  <Energy>  (382) 
-0.26404377721976857

>  <compound_id>  (382) 
54367

>  <target_id>  (382) 
1

>  <reference_id>  (382) 
80

>  <inspiration_ids>  (382) 
[59, 80]

>  <energy_score>  (382) 
-53.76679074040847

>  <distance_score>  (382) 
0.357559530183231

>  <path>  (382) 
/opt/xchem-fragalysis-2/maxwin/BulkDock/SCRATCH/511020/C54367-P80/C54367-P80.minimised.mol

>  <scratch_subdir>  (382) 
/opt/xchem-fragalysis-2/maxwin/BulkDock/SCRATCH/511020/C54367-P80

>  <fragmenstein_runtime>  (382) 
1.7370293140411377

>  <fragmenstein_outcome>  (382) 
acceptable

>  <fragmenstein_mode>  (382) 
expansion

>  <fragmenstein_error>  (382) 


$$$$
C54369-P59
     RDKit          3D

 42 43  0  0  0  0  0  0  0  0999 V2000
   -0.7713    0.6803   27.5650 C   0  0  0  0  0  0  0  0  0  0  0  0
    0.6015    0.3108   27.6032 O   0  0  0  0  0  0  0  0  0  0  0  0
    0.8173   -0.7906   28.4801 C   0  0  0  0  0  0  0  0  0  0  0  0
    2.2578   -1.1440   28.4077 C   0  0  0  0  0  0  0  0  0  0  0  0
    2.9675   -2.2254   27.9439 C   0  0  0  0  0  0  0  0  0  0  0  0
    4.3755   -1.8731   28.0384 C   0  0  0  0  0  0  0  0  0  0  0  0
    5.5476   -2.7629   27.5527 C   0  0  0  0  0  0  0  0  0  0  0  0
    5.2380   -3.8758   27.3368 O   0  0  0  0  0  0  0  0  0  0  0  0
    6.9412   -2.0441   27.3970 N   0  0  0  0  0  0  0  0  0  0  0  0
    8.3299   -2.6158   27.0131 C   0  0  0  0  0  0  0  0  0  0  0  0
    9.0310   -3.0797   28.2872 C   0  0  0  0  0  0  0  0  0  0  0  0
    9.2552   -1.6034   26.2164 C   0  0  0  0  0  0  0  0  0  0  0  0
   10.5156   -1.8646   25.3890 N   0  0  0  0  0  0  0  0  0  0  0  0
   11.0923   -3.2202   24.7862 C   0  0  0  0  0  0  0  0  0  0  0  0
   10.7165   -4.3298   24.9109 O   0  0  0  0  0  0  0  0  0  0  0  0
   12.4654   -2.8943   23.9806 C   0  0  0  0  0  0  0  0  0  0  0  0
   12.7236   -3.2053   22.4388 C   0  0  0  0  0  0  0  0  0  0  0  0
   12.2362   -4.1279   21.6243 N   0  0  0  0  0  0  0  0  0  0  0  0
   12.9850   -4.0947   20.4519 C   0  0  0  0  0  0  0  0  0  0  0  0
   13.9075   -3.0860   20.5032 C   0  0  0  0  0  0  0  0  0  0  0  0
   13.7177   -2.5126   21.7370 N   0  0  0  0  0  0  0  0  0  0  0  0
    4.4609   -0.6850   28.6738 N   0  0  0  0  0  0  0  0  0  0  0  0
    3.1512   -0.2389   28.8926 O   0  0  0  0  0  0  0  0  0  0  0  0
   -1.3842   -0.1491   27.1991 H   0  0  0  0  0  0  0  0  0  0  0  0
   -1.1120    0.9891   28.5580 H   0  0  0  0  0  0  0  0  0  0  0  0
   -0.8819    1.5250   26.8799 H   0  0  0  0  0  0  0  0  0  0  0  0
    0.2027   -1.6435   28.1709 H   0  0  0  0  0  0  0  0  0  0  0  0
    0.5513   -0.5093   29.5051 H   0  0  0  0  0  0  0  0  0  0  0  0
    2.5765   -3.1337   27.5138 H   0  0  0  0  0  0  0  0  0  0  0  0
    6.8757   -1.0953   27.7515 H   0  0  0  0  0  0  0  0  0  0  0  0
    8.1300   -3.5079   26.4196 H   0  0  0  0  0  0  0  0  0  0  0  0
    8.4215   -3.8194   28.8176 H   0  0  0  0  0  0  0  0  0  0  0  0
    9.2000   -2.2418   28.9720 H   0  0  0  0  0  0  0  0  0  0  0  0
    9.9980   -3.5380   28.0568 H   0  0  0  0  0  0  0  0  0  0  0  0
    9.5939   -0.8496   26.9403 H   0  0  0  0  0  0  0  0  0  0  0  0
    8.5936   -1.0383   25.5558 H   0  0  0  0  0  0  0  0  0  0  0  0
   11.0338   -1.0769   25.0130 H   0  0  0  0  0  0  0  0  0  0  0  0
   12.7416   -1.8490   24.1621 H   0  0  0  0  0  0  0  0  0  0  0  0
   13.2284   -3.4806   24.5140 H   0  0  0  0  0  0  0  0  0  0  0  0
   12.8046   -4.7996   19.6508 H   0  0  0  0  0  0  0  0  0  0  0  0
   14.6600   -2.7421   19.8095 H   0  0  0  0  0  0  0  0  0  0  0  0
   14.2535   -1.7507   22.1255 H   0  0  0  0  0  0  0  0  0  0  0  0
  1  2  1  0
  2  3  1  0
  3  4  1  0
  4  5  2  0
  5  6  1  0
  6  7  1  0
  7  8  2  0
  7  9  1  0
  9 10  1  0
 10 11  1  0
 10 12  1  0
 12 13  1  0
 13 14  1  0
 14 15  2  0
 14 16  1  0
 16 17  1  0
 17 18  2  0
 18 19  1  0
 19 20  2  0
 20 21  1  0
  6 22  2  0
 22 23  1  0
 23  4  1  0
 21 17  1  0
  1 24  1  0
  1 25  1  0
  1 26  1  0
  3 27  1  0
  3 28  1  0
  5 29  1  0
  9 30  1  0
 10 31  1  0
 11 32  1  0
 11 33  1  0
 11 34  1  0
 12 35  1  0
 12 36  1  0
 13 37  1  0
 16 38  1  0
 16 39  1  0
 19 40  1  0
 20 41  1  0
 21 42  1  0
M  END
>  <Energy>  (383) 
107.65516516949135

>  <compound_id>  (383) 
54369

>  <target_id>  (383) 
1

>  <reference_id>  (383) 
59

>  <inspiration_ids>  (383) 
[59, 80]

>  <energy_score>  (383) 
28.24086061429773

>  <distance_score>  (383) 
10.575665769114059

>  <path>  (383) 
/opt/xchem-fragalysis-2/maxwin/BulkDock/SCRATCH/511020/C54369-P59/C54369-P59.minimised.mol

>  <scratch_subdir>  (383) 
/opt/xchem-fragalysis-2/maxwin/BulkDock/SCRATCH/511020/C54369-P59

>  <fragmenstein_runtime>  (383) 
7.398026466369629

>  <fragmenstein_outcome>  (383) 
too moved

>  <fragmenstein_mode>  (383) 
expansion

>  <fragmenstein_error>  (383) 


$$$$
C54369-P80
     RDKit          3D

 42 43  0  0  0  0  0  0  0  0999 V2000
    2.4174    0.7420   29.8678 C   0  0  0  0  0  0  0  0  0  0  0  0
    2.4915   -0.5516   29.2819 O   0  0  0  0  0  0  0  0  0  0  0  0
    2.9263   -0.5157   27.9184 C   0  0  0  0  0  0  0  0  0  0  0  0
    4.4066   -0.4503   27.8895 C   0  0  0  0  0  0  0  0  0  0  0  0
    5.4091   -1.3819   27.9893 C   0  0  0  0  0  0  0  0  0  0  0  0
    6.6195   -0.6622   27.7546 C   0  0  0  0  0  0  0  0  0  0  0  0
    7.9968   -1.2395   27.6541 C   0  0  0  0  0  0  0  0  0  0  0  0
    8.1610   -2.3385   28.0977 O   0  0  0  0  0  0  0  0  0  0  0  0
    8.9118   -0.3516   26.9775 N   0  0  0  0  0  0  0  0  0  0  0  0
   10.2991   -0.5528   26.5350 C   0  0  0  0  0  0  0  0  0  0  0  0
   11.1930   -0.8816   27.7329 C   0  0  0  0  0  0  0  0  0  0  0  0
   10.9134    0.6210   25.7183 C   0  0  0  0  0  0  0  0  0  0  0  0
   11.9820    0.2261   24.7994 N   0  0  0  0  0  0  0  0  0  0  0  0
   12.4878    0.8661   23.5926 C   0  0  0  0  0  0  0  0  0  0  0  0
   12.1030    1.8387   23.0028 O   0  0  0  0  0  0  0  0  0  0  0  0
   13.7776    0.1380   23.1207 C   0  0  0  0  0  0  0  0  0  0  0  0
   14.1110    0.3101   21.6565 C   0  0  0  0  0  0  0  0  0  0  0  0
   14.5943   -0.6211   20.8482 N   0  0  0  0  0  0  0  0  0  0  0  0
   14.7932   -0.0171   19.6342 C   0  0  0  0  0  0  0  0  0  0  0  0
   14.4478    1.3084   19.6980 C   0  0  0  0  0  0  0  0  0  0  0  0
   14.0118    1.5058   20.9827 N   0  0  0  0  0  0  0  0  0  0  0  0
    6.3514    0.6507   27.6035 N   0  0  0  0  0  0  0  0  0  0  0  0
    4.9684    0.7723   27.6838 O   0  0  0  0  0  0  0  0  0  0  0  0
    2.0414    0.6321   30.8887 H   0  0  0  0  0  0  0  0  0  0  0  0
    3.4043    1.2107   29.9149 H   0  0  0  0  0  0  0  0  0  0  0  0
    1.7223    1.3775   29.3106 H   0  0  0  0  0  0  0  0  0  0  0  0
    2.4616    0.3166   27.3783 H   0  0  0  0  0  0  0  0  0  0  0  0
    2.5930   -1.4451   27.4446 H   0  0  0  0  0  0  0  0  0  0  0  0
    5.3044   -2.4479   28.1276 H   0  0  0  0  0  0  0  0  0  0  0  0
    8.4488    0.5394   26.8141 H   0  0  0  0  0  0  0  0  0  0  0  0
   10.2628   -1.4438   25.8963 H   0  0  0  0  0  0  0  0  0  0  0  0
   11.2013   -0.0572   28.4545 H   0  0  0  0  0  0  0  0  0  0  0  0
   12.2238   -1.0722   27.4174 H   0  0  0  0  0  0  0  0  0  0  0  0
   10.8380   -1.7743   28.2582 H   0  0  0  0  0  0  0  0  0  0  0  0
   10.1637    1.1411   25.1195 H   0  0  0  0  0  0  0  0  0  0  0  0
   11.3351    1.3770   26.3909 H   0  0  0  0  0  0  0  0  0  0  0  0
   12.6060   -0.5306   25.0596 H   0  0  0  0  0  0  0  0  0  0  0  0
   13.7017   -0.9339   23.3349 H   0  0  0  0  0  0  0  0  0  0  0  0
   14.6081    0.5351   23.7166 H   0  0  0  0  0  0  0  0  0  0  0  0
   15.1756   -0.5693   18.7861 H   0  0  0  0  0  0  0  0  0  0  0  0
   14.4463    2.1040   18.9672 H   0  0  0  0  0  0  0  0  0  0  0  0
   13.6012    2.3511   21.3632 H   0  0  0  0  0  0  0  0  0  0  0  0
  1  2  1  0
  2  3  1  0
  3  4  1  0
  4  5  2  0
  5  6  1  0
  6  7  1  0
  7  8  2  0
  7  9  1  0
  9 10  1  0
 10 11  1  0
 10 12  1  0
 12 13  1  0
 13 14  1  0
 14 15  2  0
 14 16  1  0
 16 17  1  0
 17 18  2  0
 18 19  1  0
 19 20  2  0
 20 21  1  0
  6 22  2  0
 22 23  1  0
 23  4  1  0
 21 17  1  0
  1 24  1  0
  1 25  1  0
  1 26  1  0
  3 27  1  0
  3 28  1  0
  5 29  1  0
  9 30  1  0
 10 31  1  0
 11 32  1  0
 11 33  1  0
 11 34  1  0
 12 35  1  0
 12 36  1  0
 13 37  1  0
 16 38  1  0
 16 39  1  0
 19 40  1  0
 20 41  1  0
 21 42  1  0
M  END
>  <Energy>  (384) 
40.946243651689166

>  <compound_id>  (384) 
54369

>  <target_id>  (384) 
1

>  <reference_id>  (384) 
80

>  <inspiration_ids>  (384) 
[59, 80]

>  <energy_score>  (384) 
-30.96650990763493

>  <distance_score>  (384) 
11.922614609958195

>  <path>  (384) 
/opt/xchem-fragalysis-2/maxwin/BulkDock/SCRATCH/511020/C54369-P80/C54369-P80.minimised.mol

>  <scratch_subdir>  (384) 
/opt/xchem-fragalysis-2/maxwin/BulkDock/SCRATCH/511020/C54369-P80

>  <fragmenstein_runtime>  (384) 
18.512661695480347

>  <fragmenstein_outcome>  (384) 
too moved

>  <fragmenstein_mode>  (384) 
expansion

>  <fragmenstein_error>  (384) 


$$$$
C54370-P59
     RDKit          3D

 38 39  0  0  0  0  0  0  0  0999 V2000
    0.3155    1.6104   27.7925 C   0  0  0  0  0  0  0  0  0  0  0  0
    1.0878    2.3811   26.8007 C   0  0  0  0  0  0  0  0  0  0  0  0
    2.4228    2.5455   26.5325 C   0  0  0  0  0  0  0  0  0  0  0  0
    2.4719    3.3967   25.3860 C   0  0  0  0  0  0  0  0  0  0  0  0
    3.6953    3.8709   24.6769 C   0  0  0  0  0  0  0  0  0  0  0  0
    4.7488    3.5228   25.1242 O   0  0  0  0  0  0  0  0  0  0  0  0
    3.3855    4.6989   23.5446 N   0  0  0  0  0  0  0  0  0  0  0  0
    4.2607    5.4585   22.6355 C   0  0  0  0  0  0  0  0  0  0  0  0
    4.8079    6.6807   23.3737 C   0  0  0  0  0  0  0  0  0  0  0  0
    3.5764    5.8713   21.3085 C   0  0  0  0  0  0  0  0  0  0  0  0
    4.3500    5.7019   20.0786 N   0  0  0  0  0  0  0  0  0  0  0  0
    5.7061    6.0837   19.7494 C   0  0  0  0  0  0  0  0  0  0  0  0
    6.5701    6.5669   20.4280 O   0  0  0  0  0  0  0  0  0  0  0  0
    5.9970    5.8518   18.2419 C   0  0  0  0  0  0  0  0  0  0  0  0
    6.9680    4.7358   17.9592 C   0  0  0  0  0  0  0  0  0  0  0  0
    6.9912    3.9704   16.8774 N   0  0  0  0  0  0  0  0  0  0  0  0
    8.0201    3.0798   17.0595 C   0  0  0  0  0  0  0  0  0  0  0  0
    8.6149    3.2869   18.2759 C   0  0  0  0  0  0  0  0  0  0  0  0
    7.9690    4.3626   18.8222 N   0  0  0  0  0  0  0  0  0  0  0  0
    1.2243    3.7290   25.0069 N   0  0  0  0  0  0  0  0  0  0  0  0
    0.3685    3.0963   25.8965 O   0  0  0  0  0  0  0  0  0  0  0  0
   -0.3525    0.9021   27.2928 H   0  0  0  0  0  0  0  0  0  0  0  0
    0.9799    1.0441   28.4524 H   0  0  0  0  0  0  0  0  0  0  0  0
   -0.2903    2.2800   28.4106 H   0  0  0  0  0  0  0  0  0  0  0  0
    3.2620    2.1122   27.0565 H   0  0  0  0  0  0  0  0  0  0  0  0
    2.3794    4.8507   23.5108 H   0  0  0  0  0  0  0  0  0  0  0  0
    5.1034    4.8036   22.4193 H   0  0  0  0  0  0  0  0  0  0  0  0
    5.3647    6.3793   24.2679 H   0  0  0  0  0  0  0  0  0  0  0  0
    3.9952    7.3389   23.7007 H   0  0  0  0  0  0  0  0  0  0  0  0
    5.4831    7.2620   22.7396 H   0  0  0  0  0  0  0  0  0  0  0  0
    3.2664    6.9217   21.3406 H   0  0  0  0  0  0  0  0  0  0  0  0
    2.6695    5.2743   21.1577 H   0  0  0  0  0  0  0  0  0  0  0  0
    3.9302    5.2472   19.2764 H   0  0  0  0  0  0  0  0  0  0  0  0
    6.4068    6.7889   17.8455 H   0  0  0  0  0  0  0  0  0  0  0  0
    5.0692    5.6678   17.6894 H   0  0  0  0  0  0  0  0  0  0  0  0
    8.2667    2.3387   16.3110 H   0  0  0  0  0  0  0  0  0  0  0  0
    9.4280    2.8042   18.7887 H   0  0  0  0  0  0  0  0  0  0  0  0
    8.1224    4.7670   19.7419 H   0  0  0  0  0  0  0  0  0  0  0  0
  1  2  1  0
  2  3  2  0
  3  4  1  0
  4  5  1  0
  5  6  2  0
  5  7  1  0
  7  8  1  0
  8  9  1  0
  8 10  1  0
 10 11  1  0
 11 12  1  0
 12 13  2  0
 12 14  1  0
 14 15  1  0
 15 16  2  0
 16 17  1  0
 17 18  2  0
 18 19  1  0
  4 20  2  0
 20 21  1  0
 21  2  1  0
 19 15  1  0
  1 22  1  0
  1 23  1  0
  1 24  1  0
  3 25  1  0
  7 26  1  0
  8 27  1  0
  9 28  1  0
  9 29  1  0
  9 30  1  0
 10 31  1  0
 10 32  1  0
 11 33  1  0
 14 34  1  0
 14 35  1  0
 17 36  1  0
 18 37  1  0
 19 38  1  0
M  END
>  <Energy>  (385) 
29.113914287752827

>  <compound_id>  (385) 
54370

>  <target_id>  (385) 
1

>  <reference_id>  (385) 
59

>  <inspiration_ids>  (385) 
[59, 80]

>  <energy_score>  (385) 
-23.7928245687375

>  <distance_score>  (385) 
11.518536687304248

>  <path>  (385) 
/opt/xchem-fragalysis-2/maxwin/BulkDock/SCRATCH/511020/C54370-P59/C54370-P59.minimised.mol

>  <scratch_subdir>  (385) 
/opt/xchem-fragalysis-2/maxwin/BulkDock/SCRATCH/511020/C54370-P59

>  <fragmenstein_runtime>  (385) 
13.033632516860962

>  <fragmenstein_outcome>  (385) 
too moved

>  <fragmenstein_mode>  (385) 
expansion

>  <fragmenstein_error>  (385) 


$$$$
C54370-P80
     RDKit          3D

 38 39  0  0  0  0  0  0  0  0999 V2000
   -1.5097    0.5024   27.8933 C   0  0  0  0  0  0  0  0  0  0  0  0
   -0.8572   -0.3012   28.9312 C   0  0  0  0  0  0  0  0  0  0  0  0
   -0.6608   -1.6455   29.1047 C   0  0  0  0  0  0  0  0  0  0  0  0
    0.3026   -1.7136   30.1397 C   0  0  0  0  0  0  0  0  0  0  0  0
    1.0993   -2.8883   30.5163 C   0  0  0  0  0  0  0  0  0  0  0  0
    0.6483   -3.9623   30.4607 O   0  0  0  0  0  0  0  0  0  0  0  0
    2.5278   -2.4218   30.8503 N   0  0  0  0  0  0  0  0  0  0  0  0
    3.7317   -3.1840   31.0945 C   0  0  0  0  0  0  0  0  0  0  0  0
    3.7062   -3.7526   32.5110 C   0  0  0  0  0  0  0  0  0  0  0  0
    5.0111   -2.3536   30.8679 C   0  0  0  0  0  0  0  0  0  0  0  0
    5.2034   -1.7903   29.5433 N   0  0  0  0  0  0  0  0  0  0  0  0
    4.4536   -2.0757   28.1999 C   0  0  0  0  0  0  0  0  0  0  0  0
    3.5206   -2.7493   27.9804 O   0  0  0  0  0  0  0  0  0  0  0  0
    5.1734   -1.2083   27.1387 C   0  0  0  0  0  0  0  0  0  0  0  0
    4.8538   -1.5873   25.7326 C   0  0  0  0  0  0  0  0  0  0  0  0
    5.6143   -1.5155   24.6866 N   0  0  0  0  0  0  0  0  0  0  0  0
    4.8831   -1.8301   23.6351 C   0  0  0  0  0  0  0  0  0  0  0  0
    3.7347   -2.3944   24.0462 C   0  0  0  0  0  0  0  0  0  0  0  0
    3.7082   -2.1979   25.3674 N   0  0  0  0  0  0  0  0  0  0  0  0
    0.5059   -0.5016   30.6903 N   0  0  0  0  0  0  0  0  0  0  0  0
   -0.2231    0.3834   29.9174 O   0  0  0  0  0  0  0  0  0  0  0  0
   -2.0436    1.3501   28.3340 H   0  0  0  0  0  0  0  0  0  0  0  0
   -2.2328   -0.0942   27.3293 H   0  0  0  0  0  0  0  0  0  0  0  0
   -0.7684    0.8951   27.1912 H   0  0  0  0  0  0  0  0  0  0  0  0
   -1.0008   -2.4495   28.4683 H   0  0  0  0  0  0  0  0  0  0  0  0
    2.5526   -1.4056   30.8885 H   0  0  0  0  0  0  0  0  0  0  0  0
    3.7123   -4.0267   30.3936 H   0  0  0  0  0  0  0  0  0  0  0  0
    2.8199   -4.3776   32.6657 H   0  0  0  0  0  0  0  0  0  0  0  0
    4.5906   -4.3692   32.7016 H   0  0  0  0  0  0  0  0  0  0  0  0
    3.6785   -2.9518   33.2584 H   0  0  0  0  0  0  0  0  0  0  0  0
    5.8939   -2.9722   31.0645 H   0  0  0  0  0  0  0  0  0  0  0  0
    5.0441   -1.5071   31.5634 H   0  0  0  0  0  0  0  0  0  0  0  0
    6.0239   -1.2226   29.3601 H   0  0  0  0  0  0  0  0  0  0  0  0
    6.2570   -1.2950   27.2787 H   0  0  0  0  0  0  0  0  0  0  0  0
    4.8849   -0.1647   27.3061 H   0  0  0  0  0  0  0  0  0  0  0  0
    5.2154   -1.7657   22.6290 H   0  0  0  0  0  0  0  0  0  0  0  0
    2.9296   -2.8443   23.4999 H   0  0  0  0  0  0  0  0  0  0  0  0
    2.9512   -2.4576   25.9873 H   0  0  0  0  0  0  0  0  0  0  0  0
  1  2  1  0
  2  3  2  0
  3  4  1  0
  4  5  1  0
  5  6  2  0
  5  7  1  0
  7  8  1  0
  8  9  1  0
  8 10  1  0
 10 11  1  0
 11 12  1  0
 12 13  2  0
 12 14  1  0
 14 15  1  0
 15 16  2  0
 16 17  1  0
 17 18  2  0
 18 19  1  0
  4 20  2  0
 20 21  1  0
 21  2  1  0
 19 15  1  0
  1 22  1  0
  1 23  1  0
  1 24  1  0
  3 25  1  0
  7 26  1  0
  8 27  1  0
  9 28  1  0
  9 29  1  0
  9 30  1  0
 10 31  1  0
 10 32  1  0
 11 33  1  0
 14 34  1  0
 14 35  1  0
 17 36  1  0
 18 37  1  0
 19 38  1  0
M  END
>  <Energy>  (386) 
54.032468945001391

>  <compound_id>  (386) 
54370

>  <target_id>  (386) 
1

>  <reference_id>  (386) 
80

>  <inspiration_ids>  (386) 
[59, 80]

>  <energy_score>  (386) 
7.087835550377122

>  <distance_score>  (386) 
9.064189725256538

>  <path>  (386) 
/opt/xchem-fragalysis-2/maxwin/BulkDock/SCRATCH/511020/C54370-P80/C54370-P80.minimised.mol

>  <scratch_subdir>  (386) 
/opt/xchem-fragalysis-2/maxwin/BulkDock/SCRATCH/511020/C54370-P80

>  <fragmenstein_runtime>  (386) 
8.482346773147583

>  <fragmenstein_outcome>  (386) 
too moved

>  <fragmenstein_mode>  (386) 
expansion

>  <fragmenstein_error>  (386) 


$$$$
C54371-P59
     RDKit          3D

 45 46  0  0  0  0  0  0  0  0999 V2000
   -0.5983   -0.4814   29.2099 C   0  0  0  0  0  0  0  0  0  0  0  0
    0.5507    0.5006   29.0175 C   0  0  0  0  0  0  0  0  0  0  0  0
    1.5436    0.0493   27.9197 C   0  0  0  0  0  0  0  0  0  0  0  0
    2.5890    1.1414   27.5697 C   0  0  0  0  0  0  0  0  0  0  0  0
    3.3223    0.9108   26.3173 N   0  0  0  0  0  0  0  0  0  0  0  0
    4.0714   -0.2394   25.8523 C   0  0  0  0  0  0  0  0  0  0  0  0
    4.2172   -1.3270   26.3394 O   0  0  0  0  0  0  0  0  0  0  0  0
    4.8305    0.1113   24.5302 C   0  0  0  0  0  0  0  0  0  0  0  0
    4.7705   -1.4031   23.3121 S   0  0  0  0  0  0  0  0  0  0  0  0
    5.5271   -0.7880   21.1614 C   0  0  0  0  0  0  0  0  0  0  0  0
    6.8368    0.0319   19.8271 C   0  0  0  0  0  0  0  0  0  0  0  0
    7.8291   -0.5075   19.1139 N   0  0  0  0  0  0  0  0  0  0  0  0
    8.2480    0.4079   18.1225 C   0  0  0  0  0  0  0  0  0  0  0  0
    8.1825    1.6564   18.6101 C   0  0  0  0  0  0  0  0  0  0  0  0
    7.5026    1.4276   19.7509 N   0  0  0  0  0  0  0  0  0  0  0  0
    2.2365   -1.1914   28.2184 N   0  0  0  0  0  0  0  0  0  0  0  0
    2.6798   -1.7471   29.4657 C   0  0  0  0  0  0  0  0  0  0  0  0
    2.5218   -1.3677   30.5918 O   0  0  0  0  0  0  0  0  0  0  0  0
    3.5108   -3.0163   29.2166 C   0  0  0  0  0  0  0  0  0  0  0  0
    2.7988   -4.0371   28.4003 C   0  0  0  0  0  0  0  0  0  0  0  0
    3.2081   -4.6111   27.1747 C   0  0  0  0  0  0  0  0  0  0  0  0
    2.2972   -5.4617   26.6898 N   0  0  0  0  0  0  0  0  0  0  0  0
    1.2796   -5.4840   27.6299 O   0  0  0  0  0  0  0  0  0  0  0  0
    1.5838   -4.6342   28.6411 C   0  0  0  0  0  0  0  0  0  0  0  0
   -0.2435   -1.4576   29.5524 H   0  0  0  0  0  0  0  0  0  0  0  0
   -1.2991   -0.0978   29.9584 H   0  0  0  0  0  0  0  0  0  0  0  0
   -1.1496   -0.6259   28.2751 H   0  0  0  0  0  0  0  0  0  0  0  0
    0.1244    1.4704   28.7328 H   0  0  0  0  0  0  0  0  0  0  0  0
    1.0696    0.6548   29.9696 H   0  0  0  0  0  0  0  0  0  0  0  0
    0.9595   -0.1524   27.0182 H   0  0  0  0  0  0  0  0  0  0  0  0
    2.0991    2.1143   27.4584 H   0  0  0  0  0  0  0  0  0  0  0  0
    3.3388    1.2196   28.3648 H   0  0  0  0  0  0  0  0  0  0  0  0
    3.3543    1.6344   25.6091 H   0  0  0  0  0  0  0  0  0  0  0  0
    5.8371    0.2849   24.9079 H   0  0  0  0  0  0  0  0  0  0  0  0
    4.4886    1.0392   24.0685 H   0  0  0  0  0  0  0  0  0  0  0  0
    4.7327   -0.0144   21.2484 H   0  0  0  0  0  0  0  0  0  0  0  0
    5.5814   -1.8812   20.8247 H   0  0  0  0  0  0  0  0  0  0  0  0
    8.6661    0.1110   17.1683 H   0  0  0  0  0  0  0  0  0  0  0  0
    8.4888    2.6307   18.2586 H   0  0  0  0  0  0  0  0  0  0  0  0
    7.2430    2.1474   20.3963 H   0  0  0  0  0  0  0  0  0  0  0  0
    2.6291   -1.7388   27.4523 H   0  0  0  0  0  0  0  0  0  0  0  0
    3.7667   -3.4545   30.1891 H   0  0  0  0  0  0  0  0  0  0  0  0
    4.4528   -2.7175   28.7427 H   0  0  0  0  0  0  0  0  0  0  0  0
    4.1121   -4.4263   26.6055 H   0  0  0  0  0  0  0  0  0  0  0  0
    0.8462   -4.5576   29.4269 H   0  0  0  0  0  0  0  0  0  0  0  0
  1  2  1  0
  2  3  1  0
  3  4  1  0
  4  5  1  0
  5  6  1  0
  6  7  2  0
  6  8  1  0
  8  9  1  0
  9 10  1  0
 10 11  1  0
 11 12  2  0
 12 13  1  0
 13 14  2  0
 14 15  1  0
  3 16  1  0
 16 17  1  0
 17 18  2  0
 17 19  1  0
 19 20  1  0
 20 21  1  0
 21 22  2  0
 22 23  1  0
 23 24  1  0
 15 11  1  0
 24 20  2  0
  1 25  1  0
  1 26  1  0
  1 27  1  0
  2 28  1  0
  2 29  1  0
  3 30  1  0
  4 31  1  0
  4 32  1  0
  5 33  1  0
  8 34  1  0
  8 35  1  0
 10 36  1  0
 10 37  1  0
 13 38  1  0
 14 39  1  0
 15 40  1  0
 16 41  1  0
 19 42  1  0
 19 43  1  0
 21 44  1  0
 24 45  1  0
M  END
>  <Energy>  (387) 
276.02853401684285

>  <compound_id>  (387) 
54371

>  <target_id>  (387) 
1

>  <reference_id>  (387) 
59

>  <inspiration_ids>  (387) 
[59, 80]

>  <energy_score>  (387) 
204.38452975597272

>  <distance_score>  (387) 
8.540289710766997

>  <path>  (387) 
/opt/xchem-fragalysis-2/maxwin/BulkDock/SCRATCH/511020/C54371-P59/C54371-P59.minimised.mol

>  <scratch_subdir>  (387) 
/opt/xchem-fragalysis-2/maxwin/BulkDock/SCRATCH/511020/C54371-P59

>  <fragmenstein_runtime>  (387) 
19.599750757217407

>  <fragmenstein_outcome>  (387) 
too moved

>  <fragmenstein_mode>  (387) 
expansion

>  <fragmenstein_error>  (387) 


$$$$
C54371-P80
     RDKit          3D

 45 46  0  0  0  0  0  0  0  0999 V2000
    0.5487    2.1922   27.6911 C   0  0  0  0  0  0  0  0  0  0  0  0
    0.3160    1.3127   28.9088 C   0  0  0  0  0  0  0  0  0  0  0  0
    1.4828    0.3384   29.1855 C   0  0  0  0  0  0  0  0  0  0  0  0
    1.6623   -0.7244   28.0823 C   0  0  0  0  0  0  0  0  0  0  0  0
    2.6841   -0.5018   27.0786 N   0  0  0  0  0  0  0  0  0  0  0  0
    3.4578   -1.4413   26.2866 C   0  0  0  0  0  0  0  0  0  0  0  0
    3.5018   -2.6343   26.3214 O   0  0  0  0  0  0  0  0  0  0  0  0
    4.3538   -0.6548   25.2384 C   0  0  0  0  0  0  0  0  0  0  0  0
    5.0486   -1.8329   23.9631 S   0  0  0  0  0  0  0  0  0  0  0  0
    5.5542   -1.5303   21.7859 C   0  0  0  0  0  0  0  0  0  0  0  0
    6.9843   -0.6853   20.7329 C   0  0  0  0  0  0  0  0  0  0  0  0
    7.8240   -1.1030   19.8037 N   0  0  0  0  0  0  0  0  0  0  0  0
    7.5653   -0.2847   18.7658 C   0  0  0  0  0  0  0  0  0  0  0  0
    7.3058    0.9244   19.2868 C   0  0  0  0  0  0  0  0  0  0  0  0
    7.5029    0.6342   20.6081 N   0  0  0  0  0  0  0  0  0  0  0  0
    1.2001   -0.3026   30.4680 N   0  0  0  0  0  0  0  0  0  0  0  0
    1.3485    0.1772   31.8137 C   0  0  0  0  0  0  0  0  0  0  0  0
    1.8160    1.1960   32.2330 O   0  0  0  0  0  0  0  0  0  0  0  0
    0.7103   -0.8131   32.7966 C   0  0  0  0  0  0  0  0  0  0  0  0
   -0.7752   -0.6879   32.8282 C   0  0  0  0  0  0  0  0  0  0  0  0
   -1.5889    0.3795   32.3791 C   0  0  0  0  0  0  0  0  0  0  0  0
   -2.8904    0.1452   32.5609 N   0  0  0  0  0  0  0  0  0  0  0  0
   -2.9504   -1.1012   33.1644 O   0  0  0  0  0  0  0  0  0  0  0  0
   -1.6924   -1.5836   33.3267 C   0  0  0  0  0  0  0  0  0  0  0  0
    1.4895    2.7446   27.7791 H   0  0  0  0  0  0  0  0  0  0  0  0
    0.5779    1.6029   26.7725 H   0  0  0  0  0  0  0  0  0  0  0  0
   -0.2635    2.9196   27.5925 H   0  0  0  0  0  0  0  0  0  0  0  0
   -0.6222    0.7567   28.7864 H   0  0  0  0  0  0  0  0  0  0  0  0
    0.1734    1.9682   29.7775 H   0  0  0  0  0  0  0  0  0  0  0  0
    2.4080    0.9106   29.3225 H   0  0  0  0  0  0  0  0  0  0  0  0
    0.7201   -0.8863   27.5483 H   0  0  0  0  0  0  0  0  0  0  0  0
    1.9138   -1.6934   28.5317 H   0  0  0  0  0  0  0  0  0  0  0  0
    2.8336    0.4324   26.7215 H   0  0  0  0  0  0  0  0  0  0  0  0
    5.1621   -0.2796   25.8693 H   0  0  0  0  0  0  0  0  0  0  0  0
    3.7810    0.2002   24.9035 H   0  0  0  0  0  0  0  0  0  0  0  0
    5.5246   -2.5444   21.3581 H   0  0  0  0  0  0  0  0  0  0  0  0
    4.8350   -0.7061   21.8285 H   0  0  0  0  0  0  0  0  0  0  0  0
    7.9222   -0.2673   17.7335 H   0  0  0  0  0  0  0  0  0  0  0  0
    7.4000    1.9195   18.8470 H   0  0  0  0  0  0  0  0  0  0  0  0
    7.4579    1.4069   21.2702 H   0  0  0  0  0  0  0  0  0  0  0  0
    0.8336   -1.2486   30.4925 H   0  0  0  0  0  0  0  0  0  0  0  0
    1.0098   -1.8342   32.5327 H   0  0  0  0  0  0  0  0  0  0  0  0
    1.1188   -0.6139   33.7948 H   0  0  0  0  0  0  0  0  0  0  0  0
   -1.2854    1.3126   31.9241 H   0  0  0  0  0  0  0  0  0  0  0  0
   -1.6261   -2.5506   33.8051 H   0  0  0  0  0  0  0  0  0  0  0  0
  1  2  1  0
  2  3  1  0
  3  4  1  0
  4  5  1  0
  5  6  1  0
  6  7  2  0
  6  8  1  0
  8  9  1  0
  9 10  1  0
 10 11  1  0
 11 12  2  0
 12 13  1  0
 13 14  2  0
 14 15  1  0
  3 16  1  0
 16 17  1  0
 17 18  2  0
 17 19  1  0
 19 20  1  0
 20 21  1  0
 21 22  2  0
 22 23  1  0
 23 24  1  0
 15 11  1  0
 24 20  2  0
  1 25  1  0
  1 26  1  0
  1 27  1  0
  2 28  1  0
  2 29  1  0
  3 30  1  0
  4 31  1  0
  4 32  1  0
  5 33  1  0
  8 34  1  0
  8 35  1  0
 10 36  1  0
 10 37  1  0
 13 38  1  0
 14 39  1  0
 15 40  1  0
 16 41  1  0
 19 42  1  0
 19 43  1  0
 21 44  1  0
 24 45  1  0
M  END
>  <Energy>  (388) 
256.64603297510683

>  <compound_id>  (388) 
54371

>  <target_id>  (388) 
1

>  <reference_id>  (388) 
80

>  <inspiration_ids>  (388) 
[59, 80]

>  <energy_score>  (388) 
185.00202871421783

>  <distance_score>  (388) 
7.921258079022227

>  <path>  (388) 
/opt/xchem-fragalysis-2/maxwin/BulkDock/SCRATCH/511020/C54371-P80/C54371-P80.minimised.mol

>  <scratch_subdir>  (388) 
/opt/xchem-fragalysis-2/maxwin/BulkDock/SCRATCH/511020/C54371-P80

>  <fragmenstein_runtime>  (388) 
19.990195989608765

>  <fragmenstein_outcome>  (388) 
too moved

>  <fragmenstein_mode>  (388) 
expansion

>  <fragmenstein_error>  (388) 


$$$$
C38611-P44
     RDKit          3D

 52 53  0  0  0  0  0  0  0  0999 V2000
    4.0068   -3.7851   29.8234 C   0  0  0  0  0  0  0  0  0  0  0  0
    2.5264   -4.1293   29.7448 C   0  0  0  0  0  0  0  0  0  0  0  0
    1.6152   -2.8942   29.6157 C   0  0  0  0  0  0  0  0  0  0  0  0
    1.6403   -2.0309   30.8789 C   0  0  0  0  0  0  0  0  0  0  0  0
    0.1611   -3.3223   29.3097 C   0  0  0  0  0  0  0  0  0  0  0  0
   -0.1850   -4.4509   29.5081 O   0  0  0  0  0  0  0  0  0  0  0  0
   -0.5703   -2.1916   28.8218 N   0  0  0  0  0  0  0  0  0  0  0  0
   -1.9261   -2.0791   28.3265 C   0  0  0  0  0  0  0  0  0  0  0  0
   -2.9869   -2.5984   29.3471 C   0  0  0  0  0  0  0  0  0  0  0  0
   -2.8486   -2.2309   30.5081 O   0  0  0  0  0  0  0  0  0  0  0  0
   -4.2657   -3.5297   28.6058 N   0  0  0  0  0  0  0  0  0  0  0  0
   -5.3576   -2.9070   28.0383 C   0  0  0  0  0  0  0  0  0  0  0  0
   -7.2287   -3.2529   28.1184 C   0  0  0  0  0  0  0  0  0  0  0  0
   -7.5033   -5.0457   27.9674 C   0  0  0  0  0  0  0  0  0  0  0  0
   -6.2671   -6.1076   29.0628 C   0  0  0  0  0  0  0  0  0  0  0  0
   -5.7761   -8.1112   29.0323 C   0  0  0  0  0  0  0  0  0  0  0  0
   -6.6054   -9.8327   28.8032 N   0  0  0  0  0  0  0  0  0  0  0  0
   -5.8255  -11.6104   28.8448 C   0  0  0  0  0  0  0  0  0  0  0  0
   -4.6725  -11.9673   29.1391 O   0  0  0  0  0  0  0  0  0  0  0  0
   -6.8394  -12.9902   28.2078 C   0  0  0  0  0  0  0  0  0  0  0  0
   -7.2567  -13.1242   26.9506 N   0  0  0  0  0  0  0  0  0  0  0  0
   -8.2463  -14.0611   27.0237 C   0  0  0  0  0  0  0  0  0  0  0  0
   -8.0901  -14.7030   28.1738 C   0  0  0  0  0  0  0  0  0  0  0  0
   -7.0678  -14.1048   28.8595 N   0  0  0  0  0  0  0  0  0  0  0  0
   -5.6905   -4.3431   29.3944 C   0  0  0  0  0  0  0  0  0  0  0  0
    4.2458   -3.2415   30.7418 H   0  0  0  0  0  0  0  0  0  0  0  0
    4.6051   -4.7020   29.8171 H   0  0  0  0  0  0  0  0  0  0  0  0
    4.3145   -3.1754   28.9681 H   0  0  0  0  0  0  0  0  0  0  0  0
    2.3748   -4.7810   28.8748 H   0  0  0  0  0  0  0  0  0  0  0  0
    2.2459   -4.7188   30.6265 H   0  0  0  0  0  0  0  0  0  0  0  0
    1.9740   -2.3003   28.7644 H   0  0  0  0  0  0  0  0  0  0  0  0
    1.3291   -2.6107   31.7549 H   0  0  0  0  0  0  0  0  0  0  0  0
    2.6408   -1.6317   31.0695 H   0  0  0  0  0  0  0  0  0  0  0  0
    0.9614   -1.1756   30.7983 H   0  0  0  0  0  0  0  0  0  0  0  0
    0.0660   -1.4143   28.7015 H   0  0  0  0  0  0  0  0  0  0  0  0
   -1.9727   -2.3877   27.2973 H   0  0  0  0  0  0  0  0  0  0  0  0
   -2.1177   -0.9983   28.2725 H   0  0  0  0  0  0  0  0  0  0  0  0
   -4.7108   -2.1093   27.7016 H   0  0  0  0  0  0  0  0  0  0  0  0
   -5.1254   -3.0949   27.0020 H   0  0  0  0  0  0  0  0  0  0  0  0
   -7.7091   -2.9506   29.0604 H   0  0  0  0  0  0  0  0  0  0  0  0
   -7.7691   -2.7186   27.3290 H   0  0  0  0  0  0  0  0  0  0  0  0
   -8.5606   -5.1371   27.6783 H   0  0  0  0  0  0  0  0  0  0  0  0
   -7.2304   -5.5696   27.1050 H   0  0  0  0  0  0  0  0  0  0  0  0
   -6.4756   -6.2253   30.1361 H   0  0  0  0  0  0  0  0  0  0  0  0
   -6.7764   -8.3503   28.8342 H   0  0  0  0  0  0  0  0  0  0  0  0
   -5.1895   -8.0793   28.1091 H   0  0  0  0  0  0  0  0  0  0  0  0
   -7.5498   -9.8543   28.4428 H   0  0  0  0  0  0  0  0  0  0  0  0
   -8.6558  -14.6018   26.1871 H   0  0  0  0  0  0  0  0  0  0  0  0
   -8.2091  -15.7864   28.1723 H   0  0  0  0  0  0  0  0  0  0  0  0
   -6.5374  -14.3308   29.6947 H   0  0  0  0  0  0  0  0  0  0  0  0
   -5.8669   -4.5784   28.4468 H   0  0  0  0  0  0  0  0  0  0  0  0
   -6.2227   -3.7780   30.1587 H   0  0  0  0  0  0  0  0  0  0  0  0
  1  2  1  0
  2  3  1  0
  3  4  1  0
  3  5  1  0
  5  6  2  0
  5  7  1  0
  7  8  1  0
  8  9  1  0
  9 10  2  0
  9 11  1  0
 11 12  1  0
 12 13  1  0
 13 14  1  0
 14 15  1  0
 15 16  1  0
 16 17  1  0
 17 18  1  0
 18 19  2  0
 18 20  1  0
 20 21  2  0
 21 22  1  0
 22 23  2  0
 23 24  1  0
 15 25  1  0
 25 11  1  0
 24 20  1  0
  1 26  1  0
  1 27  1  0
  1 28  1  0
  2 29  1  0
  2 30  1  0
  3 31  1  0
  4 32  1  0
  4 33  1  0
  4 34  1  0
  7 35  1  0
  8 36  1  0
  8 37  1  0
 12 38  1  0
 12 39  1  0
 13 40  1  0
 13 41  1  0
 14 42  1  0
 14 43  1  0
 15 44  1  0
 16 45  1  0
 16 46  1  0
 17 47  1  0
 22 48  1  0
 23 49  1  0
 24 50  1  0
 25 51  1  0
 25 52  1  0
M  END
>  <Energy>  (389) 
890.01714339565376

>  <compound_id>  (389) 
38611

>  <target_id>  (389) 
1

>  <reference_id>  (389) 
44

>  <inspiration_ids>  (389) 
[44, 101]

>  <energy_score>  (389) 
832.1312517225731

>  <distance_score>  (389) 
9.683684716979581

>  <path>  (389) 
/opt/xchem-fragalysis-2/maxwin/BulkDock/SCRATCH/511020/C38611-P44/C38611-P44.minimised.mol

>  <scratch_subdir>  (389) 
/opt/xchem-fragalysis-2/maxwin/BulkDock/SCRATCH/511020/C38611-P44

>  <fragmenstein_runtime>  (389) 
35.545838356018066

>  <fragmenstein_outcome>  (389) 
too moved

>  <fragmenstein_mode>  (389) 
expansion

>  <fragmenstein_error>  (389) 


$$$$
C38611-P101
     RDKit          3D

 52 53  0  0  0  0  0  0  0  0999 V2000
   -0.0213   -3.4898   30.0285 C   0  0  0  0  0  0  0  0  0  0  0  0
   -0.6539   -2.8901   28.7759 C   0  0  0  0  0  0  0  0  0  0  0  0
   -1.7376   -1.8499   29.0946 C   0  0  0  0  0  0  0  0  0  0  0  0
   -1.9199   -0.7869   28.0221 C   0  0  0  0  0  0  0  0  0  0  0  0
   -3.0437   -2.4487   29.6966 C   0  0  0  0  0  0  0  0  0  0  0  0
   -3.0146   -2.6482   30.9002 O   0  0  0  0  0  0  0  0  0  0  0  0
   -4.2370   -2.6030   28.6599 N   0  0  0  0  0  0  0  0  0  0  0  0
   -5.8268   -3.1091   28.8824 C   0  0  0  0  0  0  0  0  0  0  0  0
   -7.4330   -2.6212   29.4759 C   0  0  0  0  0  0  0  0  0  0  0  0
   -7.5297   -2.0523   30.5361 O   0  0  0  0  0  0  0  0  0  0  0  0
   -8.4591   -3.1010   28.5705 N   0  0  0  0  0  0  0  0  0  0  0  0
   -8.8354   -1.9799   27.5049 C   0  0  0  0  0  0  0  0  0  0  0  0
   -9.8051   -2.4339   26.3002 C   0  0  0  0  0  0  0  0  0  0  0  0
  -11.1783   -3.1868   26.6559 C   0  0  0  0  0  0  0  0  0  0  0  0
  -11.2212   -3.8041   28.1164 C   0  0  0  0  0  0  0  0  0  0  0  0
  -11.5729   -5.4780   28.3755 C   0  0  0  0  0  0  0  0  0  0  0  0
  -10.3096   -6.5292   28.0799 N   0  0  0  0  0  0  0  0  0  0  0  0
  -10.0863   -8.4963   28.4747 C   0  0  0  0  0  0  0  0  0  0  0  0
  -10.8085   -9.2585   29.0778 O   0  0  0  0  0  0  0  0  0  0  0  0
   -8.5497   -9.3730   27.9447 C   0  0  0  0  0  0  0  0  0  0  0  0
   -8.0519   -9.6259   26.6872 N   0  0  0  0  0  0  0  0  0  0  0  0
   -8.1615  -10.8664   26.0037 C   0  0  0  0  0  0  0  0  0  0  0  0
   -6.8995  -10.6434   25.9559 C   0  0  0  0  0  0  0  0  0  0  0  0
   -6.9936   -9.2930   27.2183 N   0  0  0  0  0  0  0  0  0  0  0  0
   -9.9532   -3.1431   28.7175 C   0  0  0  0  0  0  0  0  0  0  0  0
    0.4242   -2.7115   30.6560 H   0  0  0  0  0  0  0  0  0  0  0  0
   -0.7531   -4.0393   30.6267 H   0  0  0  0  0  0  0  0  0  0  0  0
    0.7724   -4.1898   29.7478 H   0  0  0  0  0  0  0  0  0  0  0  0
    0.1490   -2.4211   28.1950 H   0  0  0  0  0  0  0  0  0  0  0  0
   -1.0372   -3.7150   28.1808 H   0  0  0  0  0  0  0  0  0  0  0  0
   -1.3286   -1.2617   29.9332 H   0  0  0  0  0  0  0  0  0  0  0  0
   -2.4111    0.0940   28.4450 H   0  0  0  0  0  0  0  0  0  0  0  0
   -0.9556   -0.4474   27.6305 H   0  0  0  0  0  0  0  0  0  0  0  0
   -2.5323   -1.1232   27.1917 H   0  0  0  0  0  0  0  0  0  0  0  0
   -3.8920   -2.4343   27.7211 H   0  0  0  0  0  0  0  0  0  0  0  0
   -5.8062   -4.1592   29.1230 H   0  0  0  0  0  0  0  0  0  0  0  0
   -6.0905   -2.9480   27.8729 H   0  0  0  0  0  0  0  0  0  0  0  0
   -7.8887   -1.7215   27.0278 H   0  0  0  0  0  0  0  0  0  0  0  0
   -9.1447   -1.0368   27.9842 H   0  0  0  0  0  0  0  0  0  0  0  0
   -9.2338   -3.1290   25.6723 H   0  0  0  0  0  0  0  0  0  0  0  0
  -10.0258   -1.5617   25.6744 H   0  0  0  0  0  0  0  0  0  0  0  0
  -11.9816   -2.4425   26.5834 H   0  0  0  0  0  0  0  0  0  0  0  0
  -11.3898   -3.9499   25.9024 H   0  0  0  0  0  0  0  0  0  0  0  0
  -12.0923   -3.3415   28.6057 H   0  0  0  0  0  0  0  0  0  0  0  0
  -12.3132   -5.6537   27.5818 H   0  0  0  0  0  0  0  0  0  0  0  0
  -12.0211   -5.5993   29.3583 H   0  0  0  0  0  0  0  0  0  0  0  0
   -9.5668   -6.1669   27.4694 H   0  0  0  0  0  0  0  0  0  0  0  0
   -8.9745  -11.5408   25.9693 H   0  0  0  0  0  0  0  0  0  0  0  0
   -6.3951  -11.5620   26.2166 H   0  0  0  0  0  0  0  0  0  0  0  0
   -6.2708   -9.2902   27.9042 H   0  0  0  0  0  0  0  0  0  0  0  0
   -9.6744   -3.7925   27.8811 H   0  0  0  0  0  0  0  0  0  0  0  0
  -10.3124   -2.1473   28.9794 H   0  0  0  0  0  0  0  0  0  0  0  0
  1  2  1  0
  2  3  1  0
  3  4  1  0
  3  5  1  0
  5  6  2  0
  5  7  1  0
  7  8  1  0
  8  9  1  0
  9 10  2  0
  9 11  1  0
 11 12  1  0
 12 13  1  0
 13 14  1  0
 14 15  1  0
 15 16  1  0
 16 17  1  0
 17 18  1  0
 18 19  2  0
 18 20  1  0
 20 21  2  0
 21 22  1  0
 22 23  2  0
 23 24  1  0
 15 25  1  0
 25 11  1  0
 24 20  1  0
  1 26  1  0
  1 27  1  0
  1 28  1  0
  2 29  1  0
  2 30  1  0
  3 31  1  0
  4 32  1  0
  4 33  1  0
  4 34  1  0
  7 35  1  0
  8 36  1  0
  8 37  1  0
 12 38  1  0
 12 39  1  0
 13 40  1  0
 13 41  1  0
 14 42  1  0
 14 43  1  0
 15 44  1  0
 16 45  1  0
 16 46  1  0
 17 47  1  0
 22 48  1  0
 23 49  1  0
 24 50  1  0
 25 51  1  0
 25 52  1  0
M  END
>  <Energy>  (390) 
803.6391970125328

>  <compound_id>  (390) 
38611

>  <target_id>  (390) 
1

>  <reference_id>  (390) 
101

>  <inspiration_ids>  (390) 
[44, 101]

>  <energy_score>  (390) 
745.7533053394393

>  <distance_score>  (390) 
12.286569224803257

>  <path>  (390) 
/opt/xchem-fragalysis-2/maxwin/BulkDock/SCRATCH/511020/C38611-P101/C38611-P101.minimised.mol

>  <scratch_subdir>  (390) 
/opt/xchem-fragalysis-2/maxwin/BulkDock/SCRATCH/511020/C38611-P101

>  <fragmenstein_runtime>  (390) 
34.43583297729492

>  <fragmenstein_outcome>  (390) 
too moved

>  <fragmenstein_mode>  (390) 
expansion

>  <fragmenstein_error>  (390) 


$$$$
C38613-P44
     RDKit          3D

 39 40  0  0  0  0  0  0  0  0999 V2000
   -8.5901   -4.8845   27.1889 C   0  0  0  0  0  0  0  0  0  0  0  0
   -7.1616   -5.2959   27.4962 C   0  0  0  0  0  0  0  0  0  0  0  0
   -6.9200   -6.8111   26.2559 N   0  0  0  0  0  0  0  0  0  0  0  0
   -7.2211   -8.7561   26.6284 C   0  0  0  0  0  0  0  0  0  0  0  0
   -7.4912   -9.1192   27.7272 O   0  0  0  0  0  0  0  0  0  0  0  0
   -7.3189  -10.2556   25.4586 C   0  0  0  0  0  0  0  0  0  0  0  0
   -8.5092  -11.0540   25.7646 C   0  0  0  0  0  0  0  0  0  0  0  0
  -10.2008  -11.2748   25.2469 C   0  0  0  0  0  0  0  0  0  0  0  0
  -11.2199  -11.8540   25.9057 N   0  0  0  0  0  0  0  0  0  0  0  0
  -12.3808  -11.6383   25.2189 C   0  0  0  0  0  0  0  0  0  0  0  0
  -12.0915  -11.0866   24.0049 C   0  0  0  0  0  0  0  0  0  0  0  0
  -10.7295  -10.9173   24.0019 N   0  0  0  0  0  0  0  0  0  0  0  0
   -6.3965   -3.7658   28.6092 C   0  0  0  0  0  0  0  0  0  0  0  0
   -7.4349   -2.7516   28.3312 O   0  0  0  0  0  0  0  0  0  0  0  0
   -4.7904   -3.0905   28.1926 C   0  0  0  0  0  0  0  0  0  0  0  0
   -3.1205   -2.8426   29.2450 C   0  0  0  0  0  0  0  0  0  0  0  0
   -3.4607   -2.6571   30.7953 N   0  0  0  0  0  0  0  0  0  0  0  0
   -4.8841   -3.0329   31.2482 C   0  0  0  0  0  0  0  0  0  0  0  0
   -6.0915   -3.7893   30.3021 C   0  0  0  0  0  0  0  0  0  0  0  0
   -9.4795   -5.4782   27.3216 H   0  0  0  0  0  0  0  0  0  0  0  0
   -8.7029   -4.5072   26.1766 H   0  0  0  0  0  0  0  0  0  0  0  0
   -8.7301   -4.1374   27.9197 H   0  0  0  0  0  0  0  0  0  0  0  0
   -6.7276   -5.7513   28.3731 H   0  0  0  0  0  0  0  0  0  0  0  0
   -6.6107   -6.6918   25.2680 H   0  0  0  0  0  0  0  0  0  0  0  0
   -6.5165  -10.9120   25.7546 H   0  0  0  0  0  0  0  0  0  0  0  0
   -8.2913  -11.8785   26.3979 H   0  0  0  0  0  0  0  0  0  0  0  0
  -13.3415  -11.9362   25.6157 H   0  0  0  0  0  0  0  0  0  0  0  0
  -12.7046  -10.7904   23.1668 H   0  0  0  0  0  0  0  0  0  0  0  0
  -10.2089  -10.4509   23.2794 H   0  0  0  0  0  0  0  0  0  0  0  0
   -7.5083   -2.5760   27.3832 H   0  0  0  0  0  0  0  0  0  0  0  0
   -4.6319   -2.7921   27.1631 H   0  0  0  0  0  0  0  0  0  0  0  0
   -4.8135   -4.0544   28.3985 H   0  0  0  0  0  0  0  0  0  0  0  0
   -2.6579   -1.9023   28.8795 H   0  0  0  0  0  0  0  0  0  0  0  0
   -2.2955   -3.5568   29.1646 H   0  0  0  0  0  0  0  0  0  0  0  0
   -2.7183   -3.0041   31.3951 H   0  0  0  0  0  0  0  0  0  0  0  0
   -4.7782   -3.6537   32.1341 H   0  0  0  0  0  0  0  0  0  0  0  0
   -5.3406   -2.1873   31.7785 H   0  0  0  0  0  0  0  0  0  0  0  0
   -5.9471   -4.8205   30.5135 H   0  0  0  0  0  0  0  0  0  0  0  0
   -6.9824   -3.4765   30.8088 H   0  0  0  0  0  0  0  0  0  0  0  0
  1  2  1  0
  2  3  1  0
  3  4  1  0
  4  5  2  0
  4  6  1  0
  6  7  2  3
  7  8  1  0
  8  9  2  0
  9 10  1  0
 10 11  2  0
 11 12  1  0
  2 13  1  0
 13 14  1  0
 13 15  1  0
 15 16  1  0
 16 17  1  0
 17 18  1  0
 18 19  1  0
 12  8  1  0
 19 13  1  0
  1 20  1  0
  1 21  1  0
  1 22  1  0
  2 23  1  0
  3 24  1  0
  6 25  1  0
  7 26  1  0
 10 27  1  0
 11 28  1  0
 12 29  1  0
 14 30  1  0
 15 31  1  0
 15 32  1  0
 16 33  1  0
 16 34  1  0
 17 35  1  0
 18 36  1  0
 18 37  1  0
 19 38  1  0
 19 39  1  0
M  END
>  <Energy>  (391) 
656.95442996033307

>  <compound_id>  (391) 
38613

>  <target_id>  (391) 
1

>  <reference_id>  (391) 
44

>  <inspiration_ids>  (391) 
[44, 101]

>  <energy_score>  (391) 
638.8794189863281

>  <distance_score>  (391) 
10.872588804412313

>  <path>  (391) 
/opt/xchem-fragalysis-2/maxwin/BulkDock/SCRATCH/511020/C38613-P44/C38613-P44.minimised.mol

>  <scratch_subdir>  (391) 
/opt/xchem-fragalysis-2/maxwin/BulkDock/SCRATCH/511020/C38613-P44

>  <fragmenstein_runtime>  (391) 
15.783538103103638

>  <fragmenstein_outcome>  (391) 
too moved

>  <fragmenstein_mode>  (391) 
expansion

>  <fragmenstein_error>  (391) 


$$$$
C38613-P101
     RDKit          3D

 39 40  0  0  0  0  0  0  0  0999 V2000
   -8.1330   -4.7693   27.2520 C   0  0  0  0  0  0  0  0  0  0  0  0
   -6.4226   -5.5783   27.2970 C   0  0  0  0  0  0  0  0  0  0  0  0
   -6.6638   -7.2768   26.1529 N   0  0  0  0  0  0  0  0  0  0  0  0
   -7.2995   -9.0277   26.6878 C   0  0  0  0  0  0  0  0  0  0  0  0
   -7.7118   -9.2384   27.7885 O   0  0  0  0  0  0  0  0  0  0  0  0
   -7.2345  -10.6905   25.6944 C   0  0  0  0  0  0  0  0  0  0  0  0
   -6.7150  -12.0286   26.0345 C   0  0  0  0  0  0  0  0  0  0  0  0
   -7.2697  -13.3944   26.5926 C   0  0  0  0  0  0  0  0  0  0  0  0
   -7.7029  -13.6967   27.7834 N   0  0  0  0  0  0  0  0  0  0  0  0
   -8.8657  -14.2475   27.4330 C   0  0  0  0  0  0  0  0  0  0  0  0
   -8.6340  -15.2922   26.5824 C   0  0  0  0  0  0  0  0  0  0  0  0
   -7.7041  -14.6055   25.8297 N   0  0  0  0  0  0  0  0  0  0  0  0
   -5.1567   -3.9204   27.9231 C   0  0  0  0  0  0  0  0  0  0  0  0
   -5.8198   -3.9753   29.3321 O   0  0  0  0  0  0  0  0  0  0  0  0
   -3.9914   -2.6287   26.7710 C   0  0  0  0  0  0  0  0  0  0  0  0
   -2.1630   -2.2610   27.5098 C   0  0  0  0  0  0  0  0  0  0  0  0
   -2.3682   -1.9847   28.8663 N   0  0  0  0  0  0  0  0  0  0  0  0
   -3.5001   -1.3870   28.2565 C   0  0  0  0  0  0  0  0  0  0  0  0
   -5.1010   -2.5595   28.3197 C   0  0  0  0  0  0  0  0  0  0  0  0
   -8.9954   -5.3955   27.3607 H   0  0  0  0  0  0  0  0  0  0  0  0
   -8.4935   -4.3870   26.2867 H   0  0  0  0  0  0  0  0  0  0  0  0
   -8.0764   -3.8817   27.8981 H   0  0  0  0  0  0  0  0  0  0  0  0
   -6.3805   -5.8725   28.3582 H   0  0  0  0  0  0  0  0  0  0  0  0
   -6.4291   -7.2873   25.1229 H   0  0  0  0  0  0  0  0  0  0  0  0
   -8.2815  -10.9639   25.7265 H   0  0  0  0  0  0  0  0  0  0  0  0
   -5.9602  -12.0120   26.8105 H   0  0  0  0  0  0  0  0  0  0  0  0
   -9.8086  -13.9483   27.8680 H   0  0  0  0  0  0  0  0  0  0  0  0
   -9.1807  -16.1477   26.2160 H   0  0  0  0  0  0  0  0  0  0  0  0
   -7.4302  -14.8528   24.8943 H   0  0  0  0  0  0  0  0  0  0  0  0
   -5.4797   -3.3981   30.0419 H   0  0  0  0  0  0  0  0  0  0  0  0
   -4.5080   -1.8706   26.2030 H   0  0  0  0  0  0  0  0  0  0  0  0
   -3.4073   -2.8815   25.8373 H   0  0  0  0  0  0  0  0  0  0  0  0
   -1.6690   -1.3647   27.0859 H   0  0  0  0  0  0  0  0  0  0  0  0
   -1.3903   -3.0463   27.4989 H   0  0  0  0  0  0  0  0  0  0  0  0
   -2.5831   -2.8398   29.3466 H   0  0  0  0  0  0  0  0  0  0  0  0
   -3.2954   -0.3599   28.6703 H   0  0  0  0  0  0  0  0  0  0  0  0
   -3.3331   -0.8139   27.3151 H   0  0  0  0  0  0  0  0  0  0  0  0
   -5.6519   -2.6982   27.3573 H   0  0  0  0  0  0  0  0  0  0  0  0
   -6.1594   -2.3267   28.6054 H   0  0  0  0  0  0  0  0  0  0  0  0
  1  2  1  0
  2  3  1  0
  3  4  1  0
  4  5  2  0
  4  6  1  0
  6  7  2  3
  7  8  1  0
  8  9  2  0
  9 10  1  0
 10 11  2  0
 11 12  1  0
  2 13  1  0
 13 14  1  0
 13 15  1  0
 15 16  1  0
 16 17  1  0
 17 18  1  0
 18 19  1  0
 12  8  1  0
 19 13  1  0
  1 20  1  0
  1 21  1  0
  1 22  1  0
  2 23  1  0
  3 24  1  0
  6 25  1  0
  7 26  1  0
 10 27  1  0
 11 28  1  0
 12 29  1  0
 14 30  1  0
 15 31  1  0
 15 32  1  0
 16 33  1  0
 16 34  1  0
 17 35  1  0
 18 36  1  0
 18 37  1  0
 19 38  1  0
 19 39  1  0
M  END
>  <Energy>  (392) 
1109.7786021477814

>  <compound_id>  (392) 
38613

>  <target_id>  (392) 
1

>  <reference_id>  (392) 
101

>  <inspiration_ids>  (392) 
[44, 101]

>  <energy_score>  (392) 
1091.7035911737762

>  <distance_score>  (392) 
9.011760146005974

>  <path>  (392) 
/opt/xchem-fragalysis-2/maxwin/BulkDock/SCRATCH/511020/C38613-P101/C38613-P101.minimised.mol

>  <scratch_subdir>  (392) 
/opt/xchem-fragalysis-2/maxwin/BulkDock/SCRATCH/511020/C38613-P101

>  <fragmenstein_runtime>  (392) 
13.058980941772461

>  <fragmenstein_outcome>  (392) 
too moved

>  <fragmenstein_mode>  (392) 
expansion

>  <fragmenstein_error>  (392) 


$$$$
C38614-P44
     RDKit          3D

 45 47  0  0  0  0  0  0  0  0999 V2000
   -1.1809   -4.7029   23.1526 C   0  0  0  0  0  0  0  0  0  0  0  0
   -1.6128   -5.5894   24.3490 C   0  0  0  0  0  0  0  0  0  0  0  0
   -1.1871   -6.9615   23.9316 N   0  0  0  0  0  0  0  0  0  0  0  0
    0.1368   -7.6069   23.9385 C   0  0  0  0  0  0  0  0  0  0  0  0
    1.1928   -7.2209   24.3592 O   0  0  0  0  0  0  0  0  0  0  0  0
    0.0246   -8.9491   23.1589 C   0  0  0  0  0  0  0  0  0  0  0  0
    0.7744  -10.2012   23.5530 C   0  0  0  0  0  0  0  0  0  0  0  0
    0.6500  -11.3631   22.9172 N   0  0  0  0  0  0  0  0  0  0  0  0
    1.3044  -12.3036   23.6710 C   0  0  0  0  0  0  0  0  0  0  0  0
    1.8876  -11.7082   24.7600 C   0  0  0  0  0  0  0  0  0  0  0  0
    1.5842  -10.3698   24.6506 N   0  0  0  0  0  0  0  0  0  0  0  0
   -2.0824   -4.9969   26.0100 C   0  0  0  0  0  0  0  0  0  0  0  0
   -1.0669   -4.1412   27.5537 C   0  0  0  0  0  0  0  0  0  0  0  0
   -1.3191   -2.7874   28.3212 C   0  0  0  0  0  0  0  0  0  0  0  0
   -1.4424   -1.7175   27.3899 N   0  0  0  0  0  0  0  0  0  0  0  0
   -1.1067   -0.4436   27.8380 C   0  0  0  0  0  0  0  0  0  0  0  0
   -0.1717   -0.3096   28.8005 N   0  0  0  0  0  0  0  0  0  0  0  0
    0.2179    0.9372   29.1311 C   0  0  0  0  0  0  0  0  0  0  0  0
   -0.3065    2.0736   28.5737 C   0  0  0  0  0  0  0  0  0  0  0  0
   -1.2849    1.8570   27.6427 C   0  0  0  0  0  0  0  0  0  0  0  0
   -1.6831    0.6295   27.2653 N   0  0  0  0  0  0  0  0  0  0  0  0
   -2.6312   -1.8093   26.5492 C   0  0  0  0  0  0  0  0  0  0  0  0
   -2.9998   -3.2076   25.6272 C   0  0  0  0  0  0  0  0  0  0  0  0
   -0.0985   -4.5515   23.1230 H   0  0  0  0  0  0  0  0  0  0  0  0
   -1.4155   -5.2157   22.2080 H   0  0  0  0  0  0  0  0  0  0  0  0
   -1.7139   -3.7544   23.0796 H   0  0  0  0  0  0  0  0  0  0  0  0
   -2.6571   -5.7248   24.0435 H   0  0  0  0  0  0  0  0  0  0  0  0
   -1.8390   -7.5445   23.4174 H   0  0  0  0  0  0  0  0  0  0  0  0
   -1.0300   -9.2239   23.1000 H   0  0  0  0  0  0  0  0  0  0  0  0
    0.3262   -8.7069   22.1305 H   0  0  0  0  0  0  0  0  0  0  0  0
    1.3272  -13.3452   23.3813 H   0  0  0  0  0  0  0  0  0  0  0  0
    2.4875  -12.0935   25.5708 H   0  0  0  0  0  0  0  0  0  0  0  0
    1.8781   -9.6319   25.2785 H   0  0  0  0  0  0  0  0  0  0  0  0
   -2.4759   -5.9817   26.3071 H   0  0  0  0  0  0  0  0  0  0  0  0
    0.0265   -4.0105   27.4324 H   0  0  0  0  0  0  0  0  0  0  0  0
   -1.2417   -4.8334   28.4001 H   0  0  0  0  0  0  0  0  0  0  0  0
   -2.1726   -2.8346   29.0122 H   0  0  0  0  0  0  0  0  0  0  0  0
   -0.4513   -2.6646   28.9854 H   0  0  0  0  0  0  0  0  0  0  0  0
    0.9955    0.9908   29.8862 H   0  0  0  0  0  0  0  0  0  0  0  0
    0.0106    3.0668   28.8566 H   0  0  0  0  0  0  0  0  0  0  0  0
   -1.7959    2.6816   27.1533 H   0  0  0  0  0  0  0  0  0  0  0  0
   -3.4265   -1.7526   27.2906 H   0  0  0  0  0  0  0  0  0  0  0  0
   -2.7478   -0.9587   25.8753 H   0  0  0  0  0  0  0  0  0  0  0  0
   -3.0381   -3.0168   24.5449 H   0  0  0  0  0  0  0  0  0  0  0  0
   -3.9832   -3.0665   26.0295 H   0  0  0  0  0  0  0  0  0  0  0  0
  1  2  1  0
  2  3  1  0
  3  4  1  0
  4  5  2  0
  4  6  1  0
  6  7  1  0
  7  8  2  0
  8  9  1  0
  9 10  2  0
 10 11  1  0
  2 12  1  0
 12 13  1  0
 13 14  1  0
 14 15  1  0
 15 16  1  0
 16 17  2  0
 17 18  1  0
 18 19  2  0
 19 20  1  0
 20 21  2  0
 15 22  1  0
 22 23  1  0
 11  7  1  0
 23 12  1  0
 21 16  1  0
  1 24  1  0
  1 25  1  0
  1 26  1  0
  2 27  1  0
  3 28  1  0
  6 29  1  0
  6 30  1  0
  9 31  1  0
 10 32  1  0
 11 33  1  0
 12 34  1  0
 13 35  1  0
 13 36  1  0
 14 37  1  0
 14 38  1  0
 18 39  1  0
 19 40  1  0
 20 41  1  0
 22 42  1  0
 22 43  1  0
 23 44  1  0
 23 45  1  0
M  END
>  <Energy>  (393) 
183.9157439367012

>  <compound_id>  (393) 
38614

>  <target_id>  (393) 
1

>  <reference_id>  (393) 
44

>  <inspiration_ids>  (393) 
[44, 101]

>  <energy_score>  (393) 
209.18116401493228

>  <distance_score>  (393) 
12.722659634919795

>  <path>  (393) 
/opt/xchem-fragalysis-2/maxwin/BulkDock/SCRATCH/511020/C38614-P44/C38614-P44.minimised.mol

>  <scratch_subdir>  (393) 
/opt/xchem-fragalysis-2/maxwin/BulkDock/SCRATCH/511020/C38614-P44

>  <fragmenstein_runtime>  (393) 
29.311662197113037

>  <fragmenstein_outcome>  (393) 
too moved

>  <fragmenstein_mode>  (393) 
expansion

>  <fragmenstein_error>  (393) 


$$$$
C38614-P101
     RDKit          3D

 45 47  0  0  0  0  0  0  0  0999 V2000
   -7.7339   -4.8086   25.7333 C   0  0  0  0  0  0  0  0  0  0  0  0
   -6.8099   -5.6244   26.6943 C   0  0  0  0  0  0  0  0  0  0  0  0
   -6.6267   -7.3682   26.0375 N   0  0  0  0  0  0  0  0  0  0  0  0
   -7.2631   -9.0403   26.7617 C   0  0  0  0  0  0  0  0  0  0  0  0
   -7.8217   -9.1960   27.8600 O   0  0  0  0  0  0  0  0  0  0  0  0
   -7.2593  -10.7378   25.7629 C   0  0  0  0  0  0  0  0  0  0  0  0
   -7.0063  -12.4745   26.4127 C   0  0  0  0  0  0  0  0  0  0  0  0
   -6.5305  -12.7500   27.5887 N   0  0  0  0  0  0  0  0  0  0  0  0
   -7.2254  -13.7939   28.1670 C   0  0  0  0  0  0  0  0  0  0  0  0
   -8.1401  -14.2170   27.2779 C   0  0  0  0  0  0  0  0  0  0  0  0
   -7.3147  -13.8214   26.2289 N   0  0  0  0  0  0  0  0  0  0  0  0
   -7.5516   -4.8567   28.2154 C   0  0  0  0  0  0  0  0  0  0  0  0
   -7.3473   -5.3659   29.7256 C   0  0  0  0  0  0  0  0  0  0  0  0
   -7.1178   -4.3232   30.8296 C   0  0  0  0  0  0  0  0  0  0  0  0
   -6.0207   -3.4826   30.4545 N   0  0  0  0  0  0  0  0  0  0  0  0
   -5.1646   -3.0846   31.4633 C   0  0  0  0  0  0  0  0  0  0  0  0
   -5.6263   -3.0705   32.7259 N   0  0  0  0  0  0  0  0  0  0  0  0
   -4.7902   -2.7051   33.7170 C   0  0  0  0  0  0  0  0  0  0  0  0
   -3.4890   -2.3368   33.5122 C   0  0  0  0  0  0  0  0  0  0  0  0
   -3.0916   -2.3625   32.2045 C   0  0  0  0  0  0  0  0  0  0  0  0
   -3.9021   -2.7195   31.1895 N   0  0  0  0  0  0  0  0  0  0  0  0
   -5.8396   -3.3513   29.0132 C   0  0  0  0  0  0  0  0  0  0  0  0
   -7.1618   -3.3482   28.2810 C   0  0  0  0  0  0  0  0  0  0  0  0
   -7.4929   -3.7442   25.6688 H   0  0  0  0  0  0  0  0  0  0  0  0
   -7.7086   -5.1604   24.7070 H   0  0  0  0  0  0  0  0  0  0  0  0
   -8.7705   -4.8009   26.0637 H   0  0  0  0  0  0  0  0  0  0  0  0
   -5.8101   -5.5691   27.0098 H   0  0  0  0  0  0  0  0  0  0  0  0
   -6.3028   -7.5043   25.1122 H   0  0  0  0  0  0  0  0  0  0  0  0
   -7.0843  -10.7707   24.6994 H   0  0  0  0  0  0  0  0  0  0  0  0
   -6.3401  -10.6764   26.1771 H   0  0  0  0  0  0  0  0  0  0  0  0
   -6.8609  -14.0171   29.1418 H   0  0  0  0  0  0  0  0  0  0  0  0
   -8.8240  -15.0259   27.1233 H   0  0  0  0  0  0  0  0  0  0  0  0
   -7.3378  -14.3974   25.4043 H   0  0  0  0  0  0  0  0  0  0  0  0
   -8.6394   -4.8720   28.0541 H   0  0  0  0  0  0  0  0  0  0  0  0
   -8.2863   -5.7850   30.1013 H   0  0  0  0  0  0  0  0  0  0  0  0
   -6.5687   -6.1323   29.7797 H   0  0  0  0  0  0  0  0  0  0  0  0
   -8.0209   -3.7175   30.9775 H   0  0  0  0  0  0  0  0  0  0  0  0
   -6.9448   -4.8751   31.7630 H   0  0  0  0  0  0  0  0  0  0  0  0
   -5.2214   -2.7248   34.7131 H   0  0  0  0  0  0  0  0  0  0  0  0
   -2.8284   -2.0524   34.3172 H   0  0  0  0  0  0  0  0  0  0  0  0
   -2.0816   -2.0919   31.9116 H   0  0  0  0  0  0  0  0  0  0  0  0
   -5.0754   -2.6709   28.6530 H   0  0  0  0  0  0  0  0  0  0  0  0
   -5.4656   -4.2550   28.6268 H   0  0  0  0  0  0  0  0  0  0  0  0
   -7.9249   -2.7613   28.8058 H   0  0  0  0  0  0  0  0  0  0  0  0
   -7.0621   -2.9093   27.2966 H   0  0  0  0  0  0  0  0  0  0  0  0
  1  2  1  0
  2  3  1  0
  3  4  1  0
  4  5  2  0
  4  6  1  0
  6  7  1  0
  7  8  2  0
  8  9  1  0
  9 10  2  0
 10 11  1  0
  2 12  1  0
 12 13  1  0
 13 14  1  0
 14 15  1  0
 15 16  1  0
 16 17  2  0
 17 18  1  0
 18 19  2  0
 19 20  1  0
 20 21  2  0
 15 22  1  0
 22 23  1  0
 11  7  1  0
 23 12  1  0
 21 16  1  0
  1 24  1  0
  1 25  1  0
  1 26  1  0
  2 27  1  0
  3 28  1  0
  6 29  1  0
  6 30  1  0
  9 31  1  0
 10 32  1  0
 11 33  1  0
 12 34  1  0
 13 35  1  0
 13 36  1  0
 14 37  1  0
 14 38  1  0
 18 39  1  0
 19 40  1  0
 20 41  1  0
 22 42  1  0
 22 43  1  0
 23 44  1  0
 23 45  1  0
M  END
>  <Energy>  (394) 
361.95838199735658

>  <compound_id>  (394) 
38614

>  <target_id>  (394) 
1

>  <reference_id>  (394) 
101

>  <inspiration_ids>  (394) 
[44, 101]

>  <energy_score>  (394) 
387.2238020755846

>  <distance_score>  (394) 
10.130921048070638

>  <path>  (394) 
/opt/xchem-fragalysis-2/maxwin/BulkDock/SCRATCH/511020/C38614-P101/C38614-P101.minimised.mol

>  <scratch_subdir>  (394) 
/opt/xchem-fragalysis-2/maxwin/BulkDock/SCRATCH/511020/C38614-P101

>  <fragmenstein_runtime>  (394) 
22.49807333946228

>  <fragmenstein_outcome>  (394) 
too moved

>  <fragmenstein_mode>  (394) 
expansion

>  <fragmenstein_error>  (394) 


$$$$
C27638-P44
     RDKit          3D

 46 47  0  0  0  0  0  0  0  0999 V2000
    3.9466   -3.6655   29.6088 C   0  0  0  0  0  0  0  0  0  0  0  0
    3.9493   -5.0735   30.1738 C   0  0  0  0  0  0  0  0  0  0  0  0
    2.6866   -5.7071   29.9220 O   0  0  0  0  0  0  0  0  0  0  0  0
    1.7027   -5.4942   30.8464 C   0  0  0  0  0  0  0  0  0  0  0  0
    1.8651   -4.8136   31.8197 O   0  0  0  0  0  0  0  0  0  0  0  0
    0.5684   -6.2064   30.4034 N   0  0  0  0  0  0  0  0  0  0  0  0
   -0.7443   -6.4322   31.0486 C   0  0  0  0  0  0  0  0  0  0  0  0
   -1.6795   -7.4727   30.3925 C   0  0  0  0  0  0  0  0  0  0  0  0
   -2.0538   -7.3117   28.8301 C   0  0  0  0  0  0  0  0  0  0  0  0
   -3.7827   -7.6817   27.8339 C   0  0  0  0  0  0  0  0  0  0  0  0
   -2.4808   -7.3159   26.5272 C   0  0  0  0  0  0  0  0  0  0  0  0
   -5.4522   -8.4649   27.0104 N   0  0  0  0  0  0  0  0  0  0  0  0
   -6.0168  -10.3523   26.6390 C   0  0  0  0  0  0  0  0  0  0  0  0
   -5.3439  -11.4352   27.0255 O   0  0  0  0  0  0  0  0  0  0  0  0
   -7.2609  -10.8480   25.7123 C   0  0  0  0  0  0  0  0  0  0  0  0
   -7.4632  -12.6383   26.5535 C   0  0  0  0  0  0  0  0  0  0  0  0
   -6.7850  -13.1803   27.4850 N   0  0  0  0  0  0  0  0  0  0  0  0
   -7.4556  -14.0703   28.2757 C   0  0  0  0  0  0  0  0  0  0  0  0
   -8.4444  -14.5795   27.4963 C   0  0  0  0  0  0  0  0  0  0  0  0
   -8.7885  -13.3876   27.1021 N   0  0  0  0  0  0  0  0  0  0  0  0
   -0.9956   -6.1154   28.3953 C   0  0  0  0  0  0  0  0  0  0  0  0
   -0.2692   -5.3396   29.5015 C   0  0  0  0  0  0  0  0  0  0  0  0
    3.1879   -3.0467   30.0982 H   0  0  0  0  0  0  0  0  0  0  0  0
    4.9233   -3.1920   29.7425 H   0  0  0  0  0  0  0  0  0  0  0  0
    3.7042   -3.6804   28.5410 H   0  0  0  0  0  0  0  0  0  0  0  0
    4.7132   -5.6715   29.6660 H   0  0  0  0  0  0  0  0  0  0  0  0
    4.1952   -5.0792   31.2419 H   0  0  0  0  0  0  0  0  0  0  0  0
   -1.2193   -5.5402   31.4893 H   0  0  0  0  0  0  0  0  0  0  0  0
   -0.4354   -6.9251   31.9868 H   0  0  0  0  0  0  0  0  0  0  0  0
   -1.0905   -8.4048   30.4842 H   0  0  0  0  0  0  0  0  0  0  0  0
   -2.5521   -7.6488   31.0194 H   0  0  0  0  0  0  0  0  0  0  0  0
   -1.3671   -8.1157   28.5380 H   0  0  0  0  0  0  0  0  0  0  0  0
   -4.1635   -7.5799   28.8773 H   0  0  0  0  0  0  0  0  0  0  0  0
   -2.3792   -8.1757   25.8548 H   0  0  0  0  0  0  0  0  0  0  0  0
   -2.5899   -6.4080   25.9369 H   0  0  0  0  0  0  0  0  0  0  0  0
   -1.4241   -7.3728   26.7524 H   0  0  0  0  0  0  0  0  0  0  0  0
   -6.1814   -7.8212   26.6858 H   0  0  0  0  0  0  0  0  0  0  0  0
   -6.5593  -11.5103   25.1281 H   0  0  0  0  0  0  0  0  0  0  0  0
   -7.3492  -10.5993   24.6718 H   0  0  0  0  0  0  0  0  0  0  0  0
   -6.7973  -14.3648   29.0704 H   0  0  0  0  0  0  0  0  0  0  0  0
   -8.8855  -15.5281   27.2279 H   0  0  0  0  0  0  0  0  0  0  0  0
   -9.7056  -13.0668   26.8535 H   0  0  0  0  0  0  0  0  0  0  0  0
   -0.1563   -6.6080   27.8738 H   0  0  0  0  0  0  0  0  0  0  0  0
   -1.3824   -5.4116   27.6749 H   0  0  0  0  0  0  0  0  0  0  0  0
    0.4740   -4.7467   28.9387 H   0  0  0  0  0  0  0  0  0  0  0  0
   -0.8315   -4.5103   29.9658 H   0  0  0  0  0  0  0  0  0  0  0  0
  1  2  1  0
  2  3  1  0
  3  4  1  0
  4  5  2  0
  4  6  1  0
  6  7  1  0
  7  8  1  0
  8  9  1  0
  9 10  1  0
 10 11  1  0
 10 12  1  0
 12 13  1  0
 13 14  2  0
 13 15  1  0
 15 16  1  0
 16 17  2  0
 17 18  1  0
 18 19  2  0
 19 20  1  0
  9 21  1  0
 21 22  1  0
 22  6  1  0
 20 16  1  0
  1 23  1  0
  1 24  1  0
  1 25  1  0
  2 26  1  0
  2 27  1  0
  7 28  1  0
  7 29  1  0
  8 30  1  0
  8 31  1  0
  9 32  1  0
 10 33  1  0
 11 34  1  0
 11 35  1  0
 11 36  1  0
 12 37  1  0
 15 38  1  0
 15 39  1  0
 18 40  1  0
 19 41  1  0
 20 42  1  0
 21 43  1  0
 21 44  1  0
 22 45  1  0
 22 46  1  0
M  END
>  <Energy>  (395) 
723.04574304396465

>  <compound_id>  (395) 
27638

>  <target_id>  (395) 
1

>  <reference_id>  (395) 
44

>  <inspiration_ids>  (395) 
[44, 101]

>  <energy_score>  (395) 
735.6873671030281

>  <distance_score>  (395) 
10.283590885964689

>  <path>  (395) 
/opt/xchem-fragalysis-2/maxwin/BulkDock/SCRATCH/511020/C27638-P44/C27638-P44.minimised.mol

>  <scratch_subdir>  (395) 
/opt/xchem-fragalysis-2/maxwin/BulkDock/SCRATCH/511020/C27638-P44

>  <fragmenstein_runtime>  (395) 
33.17287993431091

>  <fragmenstein_outcome>  (395) 
too moved

>  <fragmenstein_mode>  (395) 
expansion

>  <fragmenstein_error>  (395) 


$$$$
C27638-P101
     RDKit          3D

 46 47  0  0  0  0  0  0  0  0999 V2000
    0.9695    0.5348   31.0047 C   0  0  0  0  0  0  0  0  0  0  0  0
   -0.5138    0.7998   31.1816 C   0  0  0  0  0  0  0  0  0  0  0  0
   -1.2673   -0.0250   30.2841 O   0  0  0  0  0  0  0  0  0  0  0  0
   -1.4744    0.4655   29.0240 C   0  0  0  0  0  0  0  0  0  0  0  0
   -1.1449    1.5720   28.7003 O   0  0  0  0  0  0  0  0  0  0  0  0
   -2.0791   -0.5666   28.2780 N   0  0  0  0  0  0  0  0  0  0  0  0
   -2.5977   -0.5826   26.8963 C   0  0  0  0  0  0  0  0  0  0  0  0
   -3.5868   -1.9800   26.3977 C   0  0  0  0  0  0  0  0  0  0  0  0
   -2.8463   -3.2829   25.6251 C   0  0  0  0  0  0  0  0  0  0  0  0
   -3.0189   -5.3248   25.3947 C   0  0  0  0  0  0  0  0  0  0  0  0
   -1.8544   -6.3017   25.9504 C   0  0  0  0  0  0  0  0  0  0  0  0
   -4.9256   -6.3185   25.8210 N   0  0  0  0  0  0  0  0  0  0  0  0
   -5.3607   -7.6478   27.0940 C   0  0  0  0  0  0  0  0  0  0  0  0
   -4.5453   -7.8789   27.8761 O   0  0  0  0  0  0  0  0  0  0  0  0
   -6.8412   -9.0265   27.2568 C   0  0  0  0  0  0  0  0  0  0  0  0
   -6.6007  -10.7234   26.2359 C   0  0  0  0  0  0  0  0  0  0  0  0
   -7.1064  -11.5883   25.4142 N   0  0  0  0  0  0  0  0  0  0  0  0
   -6.9637  -12.9785   26.0724 C   0  0  0  0  0  0  0  0  0  0  0  0
   -6.8436  -13.0365   27.3645 C   0  0  0  0  0  0  0  0  0  0  0  0
   -5.8736  -12.0774   27.0654 N   0  0  0  0  0  0  0  0  0  0  0  0
   -1.5912   -2.8023   27.2327 C   0  0  0  0  0  0  0  0  0  0  0  0
   -1.0539   -1.4236   27.6709 C   0  0  0  0  0  0  0  0  0  0  0  0
    1.1892   -0.5291   31.1417 H   0  0  0  0  0  0  0  0  0  0  0  0
    1.2969    0.8001   29.9944 H   0  0  0  0  0  0  0  0  0  0  0  0
    1.5556    1.1124   31.7251 H   0  0  0  0  0  0  0  0  0  0  0  0
   -0.7446    1.8610   31.0487 H   0  0  0  0  0  0  0  0  0  0  0  0
   -0.8183    0.5295   32.1978 H   0  0  0  0  0  0  0  0  0  0  0  0
   -3.1603    0.3544   26.9203 H   0  0  0  0  0  0  0  0  0  0  0  0
   -1.9215   -0.1757   26.1302 H   0  0  0  0  0  0  0  0  0  0  0  0
   -4.1381   -1.6270   25.5915 H   0  0  0  0  0  0  0  0  0  0  0  0
   -4.2025   -2.2935   27.2412 H   0  0  0  0  0  0  0  0  0  0  0  0
   -2.8314   -3.0105   24.5397 H   0  0  0  0  0  0  0  0  0  0  0  0
   -2.8718   -5.5161   24.2901 H   0  0  0  0  0  0  0  0  0  0  0  0
   -2.0977   -7.3453   25.8065 H   0  0  0  0  0  0  0  0  0  0  0  0
   -0.9336   -6.1832   25.3733 H   0  0  0  0  0  0  0  0  0  0  0  0
   -1.6243   -6.1495   27.0084 H   0  0  0  0  0  0  0  0  0  0  0  0
   -5.7552   -6.1445   25.2460 H   0  0  0  0  0  0  0  0  0  0  0  0
   -6.8918   -9.2188   28.3496 H   0  0  0  0  0  0  0  0  0  0  0  0
   -7.7574   -8.9761   26.7630 H   0  0  0  0  0  0  0  0  0  0  0  0
   -7.1659  -13.9643   25.6579 H   0  0  0  0  0  0  0  0  0  0  0  0
   -6.9191  -13.7465   28.1772 H   0  0  0  0  0  0  0  0  0  0  0  0
   -5.1092  -11.8025   27.6822 H   0  0  0  0  0  0  0  0  0  0  0  0
   -0.8080   -3.5751   27.4078 H   0  0  0  0  0  0  0  0  0  0  0  0
   -2.1128   -2.9282   28.2305 H   0  0  0  0  0  0  0  0  0  0  0  0
   -0.3238   -0.8773   27.0576 H   0  0  0  0  0  0  0  0  0  0  0  0
   -0.3888   -1.6749   28.5184 H   0  0  0  0  0  0  0  0  0  0  0  0
  1  2  1  0
  2  3  1  0
  3  4  1  0
  4  5  2  0
  4  6  1  0
  6  7  1  0
  7  8  1  0
  8  9  1  0
  9 10  1  0
 10 11  1  0
 10 12  1  0
 12 13  1  0
 13 14  2  0
 13 15  1  0
 15 16  1  0
 16 17  2  0
 17 18  1  0
 18 19  2  0
 19 20  1  0
  9 21  1  0
 21 22  1  0
 22  6  1  0
 20 16  1  0
  1 23  1  0
  1 24  1  0
  1 25  1  0
  2 26  1  0
  2 27  1  0
  7 28  1  0
  7 29  1  0
  8 30  1  0
  8 31  1  0
  9 32  1  0
 10 33  1  0
 11 34  1  0
 11 35  1  0
 11 36  1  0
 12 37  1  0
 15 38  1  0
 15 39  1  0
 18 40  1  0
 19 41  1  0
 20 42  1  0
 21 43  1  0
 21 44  1  0
 22 45  1  0
 22 46  1  0
M  END
>  <Energy>  (396) 
786.90215584317525

>  <compound_id>  (396) 
27638

>  <target_id>  (396) 
1

>  <reference_id>  (396) 
101

>  <inspiration_ids>  (396) 
[44, 101]

>  <energy_score>  (396) 
799.5437799022362

>  <distance_score>  (396) 
9.368382823077189

>  <path>  (396) 
/opt/xchem-fragalysis-2/maxwin/BulkDock/SCRATCH/511020/C27638-P101/C27638-P101.minimised.mol

>  <scratch_subdir>  (396) 
/opt/xchem-fragalysis-2/maxwin/BulkDock/SCRATCH/511020/C27638-P101

>  <fragmenstein_runtime>  (396) 
34.05943989753723

>  <fragmenstein_outcome>  (396) 
too moved

>  <fragmenstein_mode>  (396) 
expansion

>  <fragmenstein_error>  (396) 


$$$$
C38616-P44
     RDKit          3D

 45 46  0  0  0  0  0  0  0  0999 V2000
   -2.3551   -1.2378   31.8516 C   0  0  0  0  0  0  0  0  0  0  0  0
   -3.7163   -1.3836   32.5026 C   0  0  0  0  0  0  0  0  0  0  0  0
   -4.2748   -0.4239   32.9541 O   0  0  0  0  0  0  0  0  0  0  0  0
   -4.1173   -2.7650   32.4456 N   0  0  0  0  0  0  0  0  0  0  0  0
   -5.2796   -3.4465   33.0011 C   0  0  0  0  0  0  0  0  0  0  0  0
   -6.5778   -2.9212   32.3907 C   0  0  0  0  0  0  0  0  0  0  0  0
   -5.1831   -4.9876   32.8815 C   0  0  0  0  0  0  0  0  0  0  0  0
   -5.1133   -5.5531   31.4728 C   0  0  0  0  0  0  0  0  0  0  0  0
   -4.7269   -7.0700   31.4482 C   0  0  0  0  0  0  0  0  0  0  0  0
   -4.3963   -7.9264   32.6864 N   0  0  0  0  0  0  0  0  0  0  0  0
   -4.1427   -9.2954   32.2931 C   0  0  0  0  0  0  0  0  0  0  0  0
   -3.1129   -9.8426   31.9907 O   0  0  0  0  0  0  0  0  0  0  0  0
   -5.4302  -10.2001   32.3891 C   0  0  0  0  0  0  0  0  0  0  0  0
   -6.0844  -11.1500   31.2042 C   0  0  0  0  0  0  0  0  0  0  0  0
   -5.4290  -12.2657   29.6762 C   0  0  0  0  0  0  0  0  0  0  0  0
   -5.9195  -11.9355   28.4094 N   0  0  0  0  0  0  0  0  0  0  0  0
   -6.8567  -13.0573   27.6356 C   0  0  0  0  0  0  0  0  0  0  0  0
   -7.1431  -13.9672   28.5826 C   0  0  0  0  0  0  0  0  0  0  0  0
   -6.2782  -13.7802   29.7195 N   0  0  0  0  0  0  0  0  0  0  0  0
   -3.4494   -6.7960   32.9478 C   0  0  0  0  0  0  0  0  0  0  0  0
   -4.0046   -5.5574   33.6514 C   0  0  0  0  0  0  0  0  0  0  0  0
   -2.0757   -0.1809   31.8174 H   0  0  0  0  0  0  0  0  0  0  0  0
   -2.3809   -1.6219   30.8282 H   0  0  0  0  0  0  0  0  0  0  0  0
   -1.6061   -1.7794   32.4360 H   0  0  0  0  0  0  0  0  0  0  0  0
   -3.3557   -3.3144   32.0648 H   0  0  0  0  0  0  0  0  0  0  0  0
   -5.2929   -3.1806   34.0659 H   0  0  0  0  0  0  0  0  0  0  0  0
   -6.6260   -3.1176   31.3164 H   0  0  0  0  0  0  0  0  0  0  0  0
   -7.4466   -3.3954   32.8595 H   0  0  0  0  0  0  0  0  0  0  0  0
   -6.6728   -1.8398   32.5344 H   0  0  0  0  0  0  0  0  0  0  0  0
   -6.0919   -5.4038   33.3409 H   0  0  0  0  0  0  0  0  0  0  0  0
   -4.3701   -5.0084   30.8765 H   0  0  0  0  0  0  0  0  0  0  0  0
   -6.0688   -5.4175   30.9524 H   0  0  0  0  0  0  0  0  0  0  0  0
   -3.9759   -7.2382   30.6614 H   0  0  0  0  0  0  0  0  0  0  0  0
   -5.6183   -7.5725   31.0424 H   0  0  0  0  0  0  0  0  0  0  0  0
   -5.2616  -10.8345   33.2701 H   0  0  0  0  0  0  0  0  0  0  0  0
   -6.2550   -9.5449   32.7067 H   0  0  0  0  0  0  0  0  0  0  0  0
   -6.7909  -10.4285   30.7438 H   0  0  0  0  0  0  0  0  0  0  0  0
   -6.6632  -11.8763   31.8047 H   0  0  0  0  0  0  0  0  0  0  0  0
   -7.1198  -12.8599   26.6150 H   0  0  0  0  0  0  0  0  0  0  0  0
   -7.9735  -14.6329   28.4612 H   0  0  0  0  0  0  0  0  0  0  0  0
   -6.4569  -14.1844   30.6242 H   0  0  0  0  0  0  0  0  0  0  0  0
   -2.7708   -7.2474   33.6900 H   0  0  0  0  0  0  0  0  0  0  0  0
   -2.7236   -6.5790   32.1423 H   0  0  0  0  0  0  0  0  0  0  0  0
   -4.3321   -5.8193   34.6656 H   0  0  0  0  0  0  0  0  0  0  0  0
   -3.1903   -4.8345   33.7721 H   0  0  0  0  0  0  0  0  0  0  0  0
  1  2  1  0
  2  3  2  0
  2  4  1  0
  4  5  1  0
  5  6  1  0
  5  7  1  0
  7  8  1  0
  8  9  1  0
  9 10  1  0
 10 11  1  0
 11 12  2  0
 11 13  1  0
 13 14  1  0
 14 15  1  0
 15 16  2  0
 16 17  1  0
 17 18  2  0
 18 19  1  0
 10 20  1  0
 20 21  1  0
 21  7  1  0
 19 15  1  0
  1 22  1  0
  1 23  1  0
  1 24  1  0
  4 25  1  0
  5 26  1  0
  6 27  1  0
  6 28  1  0
  6 29  1  0
  7 30  1  0
  8 31  1  0
  8 32  1  0
  9 33  1  0
  9 34  1  0
 13 35  1  0
 13 36  1  0
 14 37  1  0
 14 38  1  0
 17 39  1  0
 18 40  1  0
 19 41  1  0
 20 42  1  0
 20 43  1  0
 21 44  1  0
 21 45  1  0
M  END
>  <Energy>  (397) 
226.86873637115013

>  <compound_id>  (397) 
38616

>  <target_id>  (397) 
1

>  <reference_id>  (397) 
44

>  <inspiration_ids>  (397) 
[44, 101]

>  <energy_score>  (397) 
227.66530718890533

>  <distance_score>  (397) 
11.93898984258834

>  <path>  (397) 
/opt/xchem-fragalysis-2/maxwin/BulkDock/SCRATCH/511020/C38616-P44/C38616-P44.minimised.mol

>  <scratch_subdir>  (397) 
/opt/xchem-fragalysis-2/maxwin/BulkDock/SCRATCH/511020/C38616-P44

>  <fragmenstein_runtime>  (397) 
27.374794483184814

>  <fragmenstein_outcome>  (397) 
too moved

>  <fragmenstein_mode>  (397) 
expansion

>  <fragmenstein_error>  (397) 


$$$$
C38616-P101
     RDKit          3D

 45 46  0  0  0  0  0  0  0  0999 V2000
   -5.8926   -3.1074   32.4302 C   0  0  0  0  0  0  0  0  0  0  0  0
   -5.8279   -4.5237   32.9627 C   0  0  0  0  0  0  0  0  0  0  0  0
   -5.5287   -4.7207   34.1033 O   0  0  0  0  0  0  0  0  0  0  0  0
   -6.1268   -5.4415   31.8993 N   0  0  0  0  0  0  0  0  0  0  0  0
   -6.2533   -6.8909   31.8968 C   0  0  0  0  0  0  0  0  0  0  0  0
   -5.0350   -7.5573   32.5346 C   0  0  0  0  0  0  0  0  0  0  0  0
   -7.6123   -7.3106   32.4797 C   0  0  0  0  0  0  0  0  0  0  0  0
   -8.0375   -8.7157   32.0770 C   0  0  0  0  0  0  0  0  0  0  0  0
   -9.3540   -9.0943   32.8127 C   0  0  0  0  0  0  0  0  0  0  0  0
   -9.3610   -9.4018   34.3197 N   0  0  0  0  0  0  0  0  0  0  0  0
   -8.5201  -10.5384   34.5994 C   0  0  0  0  0  0  0  0  0  0  0  0
   -7.3518  -10.5952   34.8818 O   0  0  0  0  0  0  0  0  0  0  0  0
   -9.3965  -11.8226   34.6015 C   0  0  0  0  0  0  0  0  0  0  0  0
   -8.5810  -13.1252   34.5788 C   0  0  0  0  0  0  0  0  0  0  0  0
   -9.3469  -14.4269   34.4434 C   0  0  0  0  0  0  0  0  0  0  0  0
  -10.6350  -14.6166   34.2345 N   0  0  0  0  0  0  0  0  0  0  0  0
  -10.8466  -15.9686   34.3427 C   0  0  0  0  0  0  0  0  0  0  0  0
   -9.6632  -16.6282   34.5570 C   0  0  0  0  0  0  0  0  0  0  0  0
   -8.7111  -15.6482   34.5609 N   0  0  0  0  0  0  0  0  0  0  0  0
   -9.0754   -7.9139   34.4025 C   0  0  0  0  0  0  0  0  0  0  0  0
   -7.7131   -7.3132   33.9929 C   0  0  0  0  0  0  0  0  0  0  0  0
   -5.8492   -2.4001   33.2637 H   0  0  0  0  0  0  0  0  0  0  0  0
   -6.8304   -2.9422   31.8919 H   0  0  0  0  0  0  0  0  0  0  0  0
   -5.0421   -2.9278   31.7673 H   0  0  0  0  0  0  0  0  0  0  0  0
   -6.2585   -4.9203   31.0401 H   0  0  0  0  0  0  0  0  0  0  0  0
   -6.2516   -7.1608   30.8327 H   0  0  0  0  0  0  0  0  0  0  0  0
   -4.8919   -7.2515   33.5753 H   0  0  0  0  0  0  0  0  0  0  0  0
   -4.1228   -7.2813   31.9942 H   0  0  0  0  0  0  0  0  0  0  0  0
   -5.1164   -8.6473   32.5120 H   0  0  0  0  0  0  0  0  0  0  0  0
   -8.3734   -6.6178   32.0907 H   0  0  0  0  0  0  0  0  0  0  0  0
   -8.2071   -8.7550   30.9944 H   0  0  0  0  0  0  0  0  0  0  0  0
   -7.2619   -9.4541   32.3079 H   0  0  0  0  0  0  0  0  0  0  0  0
  -10.2024   -8.4540   32.5154 H   0  0  0  0  0  0  0  0  0  0  0  0
   -9.6370  -10.0566   32.3638 H   0  0  0  0  0  0  0  0  0  0  0  0
  -10.0767  -11.7714   33.7560 H   0  0  0  0  0  0  0  0  0  0  0  0
  -10.0112  -11.7966   35.5098 H   0  0  0  0  0  0  0  0  0  0  0  0
   -7.9750  -13.1782   35.4926 H   0  0  0  0  0  0  0  0  0  0  0  0
   -7.8799  -13.0790   33.7459 H   0  0  0  0  0  0  0  0  0  0  0  0
  -11.8411  -16.3890   34.2654 H   0  0  0  0  0  0  0  0  0  0  0  0
   -9.4220  -17.6723   34.6990 H   0  0  0  0  0  0  0  0  0  0  0  0
   -7.7220  -15.7780   34.7250 H   0  0  0  0  0  0  0  0  0  0  0  0
   -9.9343   -7.2964   34.0890 H   0  0  0  0  0  0  0  0  0  0  0  0
   -9.0885   -7.7742   35.4952 H   0  0  0  0  0  0  0  0  0  0  0  0
   -7.6455   -6.2925   34.3821 H   0  0  0  0  0  0  0  0  0  0  0  0
   -6.9122   -7.8982   34.4570 H   0  0  0  0  0  0  0  0  0  0  0  0
  1  2  1  0
  2  3  2  0
  2  4  1  0
  4  5  1  0
  5  6  1  0
  5  7  1  0
  7  8  1  0
  8  9  1  0
  9 10  1  0
 10 11  1  0
 11 12  2  0
 11 13  1  0
 13 14  1  0
 14 15  1  0
 15 16  2  0
 16 17  1  0
 17 18  2  0
 18 19  1  0
 10 20  1  0
 20 21  1  0
 21  7  1  0
 19 15  1  0
  1 22  1  0
  1 23  1  0
  1 24  1  0
  4 25  1  0
  5 26  1  0
  6 27  1  0
  6 28  1  0
  6 29  1  0
  7 30  1  0
  8 31  1  0
  8 32  1  0
  9 33  1  0
  9 34  1  0
 13 35  1  0
 13 36  1  0
 14 37  1  0
 14 38  1  0
 17 39  1  0
 18 40  1  0
 19 41  1  0
 20 42  1  0
 20 43  1  0
 21 44  1  0
 21 45  1  0
M  END
>  <Energy>  (398) 
46.100210419189665

>  <compound_id>  (398) 
38616

>  <target_id>  (398) 
1

>  <reference_id>  (398) 
101

>  <inspiration_ids>  (398) 
[44, 101]

>  <energy_score>  (398) 
46.89678123694114

>  <distance_score>  (398) 
13.488024795299468

>  <path>  (398) 
/opt/xchem-fragalysis-2/maxwin/BulkDock/SCRATCH/511020/C38616-P101/C38616-P101.minimised.mol

>  <scratch_subdir>  (398) 
/opt/xchem-fragalysis-2/maxwin/BulkDock/SCRATCH/511020/C38616-P101

>  <fragmenstein_runtime>  (398) 
30.49355959892273

>  <fragmenstein_outcome>  (398) 
too moved

>  <fragmenstein_mode>  (398) 
expansion

>  <fragmenstein_error>  (398) 


$$$$
C38617-P44
     RDKit          3D

 52 53  0  0  0  0  0  0  0  0999 V2000
    0.2719   -3.2481   32.7980 C   0  0  0  0  0  0  0  0  0  0  0  0
    0.9474   -2.3406   31.7906 C   0  0  0  0  0  0  0  0  0  0  0  0
    1.8362   -1.6187   32.1335 O   0  0  0  0  0  0  0  0  0  0  0  0
    0.3293   -2.5216   30.5115 N   0  0  0  0  0  0  0  0  0  0  0  0
    0.6529   -1.9500   29.1895 C   0  0  0  0  0  0  0  0  0  0  0  0
    1.9686   -2.6499   28.7515 C   0  0  0  0  0  0  0  0  0  0  0  0
   -0.4993   -2.4775   28.2119 C   0  0  0  0  0  0  0  0  0  0  0  0
   -0.3847   -3.5934   27.7694 O   0  0  0  0  0  0  0  0  0  0  0  0
   -1.5471   -1.5151   28.0490 N   0  0  0  0  0  0  0  0  0  0  0  0
   -2.5125   -1.6618   29.0724 C   0  0  0  0  0  0  0  0  0  0  0  0
   -3.3289   -3.0575   29.1172 C   0  0  0  0  0  0  0  0  0  0  0  0
   -5.1480   -3.6194   28.2529 C   0  0  0  0  0  0  0  0  0  0  0  0
   -5.9529   -5.3405   27.5611 N   0  0  0  0  0  0  0  0  0  0  0  0
   -6.6122   -6.5785   28.3268 C   0  0  0  0  0  0  0  0  0  0  0  0
   -6.8731   -6.7218   29.5005 O   0  0  0  0  0  0  0  0  0  0  0  0
   -6.8051   -7.9350   27.1583 C   0  0  0  0  0  0  0  0  0  0  0  0
   -6.2475   -9.1434   27.3094 N   0  0  0  0  0  0  0  0  0  0  0  0
   -6.3817  -10.5957   26.1545 C   0  0  0  0  0  0  0  0  0  0  0  0
   -7.5144  -10.2856   25.6970 C   0  0  0  0  0  0  0  0  0  0  0  0
   -7.6976   -9.1197   26.8567 N   0  0  0  0  0  0  0  0  0  0  0  0
   -4.2531   -2.5468   26.9690 C   0  0  0  0  0  0  0  0  0  0  0  0
   -2.8103   -1.5361   27.1743 C   0  0  0  0  0  0  0  0  0  0  0  0
    0.9245   -0.4050   29.2484 C   0  0  0  0  0  0  0  0  0  0  0  0
    1.2090    0.2280   27.8800 C   0  0  0  0  0  0  0  0  0  0  0  0
   -0.1205    0.4476   29.9806 C   0  0  0  0  0  0  0  0  0  0  0  0
    0.4370   -4.2942   32.5252 H   0  0  0  0  0  0  0  0  0  0  0  0
    0.6960   -3.0740   33.7913 H   0  0  0  0  0  0  0  0  0  0  0  0
   -0.8003   -3.0348   32.8359 H   0  0  0  0  0  0  0  0  0  0  0  0
   -0.3392   -3.2817   30.5718 H   0  0  0  0  0  0  0  0  0  0  0  0
    1.8951   -3.7406   28.8456 H   0  0  0  0  0  0  0  0  0  0  0  0
    2.2188   -2.4358   27.7093 H   0  0  0  0  0  0  0  0  0  0  0  0
    2.8146   -2.3390   29.3754 H   0  0  0  0  0  0  0  0  0  0  0  0
   -2.9936   -0.7027   29.2950 H   0  0  0  0  0  0  0  0  0  0  0  0
   -1.9310   -1.7190   30.0054 H   0  0  0  0  0  0  0  0  0  0  0  0
   -3.5148   -2.9094   30.2467 H   0  0  0  0  0  0  0  0  0  0  0  0
   -2.4677   -3.7428   29.1322 H   0  0  0  0  0  0  0  0  0  0  0  0
   -5.8826   -3.4959   29.0247 H   0  0  0  0  0  0  0  0  0  0  0  0
   -5.9570   -5.5213   26.5816 H   0  0  0  0  0  0  0  0  0  0  0  0
   -6.0850  -11.6224   26.4224 H   0  0  0  0  0  0  0  0  0  0  0  0
   -8.3428  -10.9654   25.7063 H   0  0  0  0  0  0  0  0  0  0  0  0
   -8.1858   -9.4948   27.6453 H   0  0  0  0  0  0  0  0  0  0  0  0
   -4.9384   -2.2946   26.1832 H   0  0  0  0  0  0  0  0  0  0  0  0
   -3.7439   -3.0581   26.1370 H   0  0  0  0  0  0  0  0  0  0  0  0
   -3.0668   -0.4686   27.2211 H   0  0  0  0  0  0  0  0  0  0  0  0
   -2.4260   -1.5515   26.1663 H   0  0  0  0  0  0  0  0  0  0  0  0
    1.8460   -0.2745   29.8343 H   0  0  0  0  0  0  0  0  0  0  0  0
    1.4741    1.2851   27.9964 H   0  0  0  0  0  0  0  0  0  0  0  0
    2.0492   -0.2540   27.3740 H   0  0  0  0  0  0  0  0  0  0  0  0
    0.3369    0.1833   27.2229 H   0  0  0  0  0  0  0  0  0  0  0  0
   -0.4422   -0.0023   30.9230 H   0  0  0  0  0  0  0  0  0  0  0  0
    0.3081    1.4267   30.2265 H   0  0  0  0  0  0  0  0  0  0  0  0
   -1.0010    0.6457   29.3654 H   0  0  0  0  0  0  0  0  0  0  0  0
  1  2  1  0
  2  3  2  0
  2  4  1  0
  4  5  1  0
  5  6  1  0
  5  7  1  0
  7  8  2  0
  7  9  1  0
  9 10  1  0
 10 11  1  0
 11 12  1  0
 12 13  1  0
 13 14  1  0
 14 15  2  0
 14 16  1  0
 16 17  2  0
 17 18  1  0
 18 19  2  0
 19 20  1  0
 12 21  1  0
 21 22  1  0
  5 23  1  0
 23 24  1  0
 23 25  1  0
 22  9  1  0
 20 16  1  0
  1 26  1  0
  1 27  1  0
  1 28  1  0
  4 29  1  0
  6 30  1  0
  6 31  1  0
  6 32  1  0
 10 33  1  0
 10 34  1  0
 11 35  1  0
 11 36  1  0
 12 37  1  0
 13 38  1  0
 18 39  1  0
 19 40  1  0
 20 41  1  0
 21 42  1  0
 21 43  1  0
 22 44  1  0
 22 45  1  0
 23 46  1  0
 24 47  1  0
 24 48  1  0
 24 49  1  0
 25 50  1  0
 25 51  1  0
 25 52  1  0
M  END
>  <Energy>  (399) 
696.40297799998484

>  <compound_id>  (399) 
38617

>  <target_id>  (399) 
1

>  <reference_id>  (399) 
44

>  <inspiration_ids>  (399) 
[44, 101]

>  <energy_score>  (399) 
619.4198816668148

>  <distance_score>  (399) 
11.07168528225375

>  <path>  (399) 
/opt/xchem-fragalysis-2/maxwin/BulkDock/SCRATCH/511020/C38617-P44/C38617-P44.minimised.mol

>  <scratch_subdir>  (399) 
/opt/xchem-fragalysis-2/maxwin/BulkDock/SCRATCH/511020/C38617-P44

>  <fragmenstein_runtime>  (399) 
32.363818883895874

>  <fragmenstein_outcome>  (399) 
too moved

>  <fragmenstein_mode>  (399) 
expansion

>  <fragmenstein_error>  (399) 


$$$$
C38617-P101
     RDKit          3D

 52 53  0  0  0  0  0  0  0  0999 V2000
    2.1398    3.4938   25.3646 C   0  0  0  0  0  0  0  0  0  0  0  0
    0.8455    4.2715   25.2786 C   0  0  0  0  0  0  0  0  0  0  0  0
    0.8618    5.4467   25.0570 O   0  0  0  0  0  0  0  0  0  0  0  0
   -0.2539    3.3681   25.4716 N   0  0  0  0  0  0  0  0  0  0  0  0
   -1.7229    3.6171   25.5562 C   0  0  0  0  0  0  0  0  0  0  0  0
   -1.9423    4.8871   26.4051 C   0  0  0  0  0  0  0  0  0  0  0  0
   -2.1008    2.3618   26.4975 C   0  0  0  0  0  0  0  0  0  0  0  0
   -1.6807    2.4664   27.6263 O   0  0  0  0  0  0  0  0  0  0  0  0
   -2.7843    1.2679   25.8522 N   0  0  0  0  0  0  0  0  0  0  0  0
   -4.4730    1.4538   26.0367 C   0  0  0  0  0  0  0  0  0  0  0  0
   -6.0186    0.6493   25.2879 C   0  0  0  0  0  0  0  0  0  0  0  0
   -6.3513   -1.3203   25.6971 C   0  0  0  0  0  0  0  0  0  0  0  0
   -7.2134   -2.3199   26.4569 N   0  0  0  0  0  0  0  0  0  0  0  0
   -8.2566   -2.1250   27.4300 C   0  0  0  0  0  0  0  0  0  0  0  0
   -8.7680   -1.1232   27.8331 O   0  0  0  0  0  0  0  0  0  0  0  0
   -8.6187   -3.4637   28.0410 C   0  0  0  0  0  0  0  0  0  0  0  0
   -9.8241   -4.0223   28.0789 N   0  0  0  0  0  0  0  0  0  0  0  0
   -9.7412   -5.1211   28.9098 C   0  0  0  0  0  0  0  0  0  0  0  0
   -8.4406   -5.3228   29.3020 C   0  0  0  0  0  0  0  0  0  0  0  0
   -7.7357   -4.3027   28.7122 N   0  0  0  0  0  0  0  0  0  0  0  0
   -4.3341   -1.7001   25.9415 C   0  0  0  0  0  0  0  0  0  0  0  0
   -3.1011   -0.2186   26.3776 C   0  0  0  0  0  0  0  0  0  0  0  0
   -2.3358    3.7538   24.1274 C   0  0  0  0  0  0  0  0  0  0  0  0
   -3.6466    4.5481   24.0817 C   0  0  0  0  0  0  0  0  0  0  0  0
   -1.4085    4.4155   23.0915 C   0  0  0  0  0  0  0  0  0  0  0  0
    2.2103    2.9840   26.3296 H   0  0  0  0  0  0  0  0  0  0  0  0
    2.1830    2.7654   24.5512 H   0  0  0  0  0  0  0  0  0  0  0  0
    2.9874    4.1789   25.2711 H   0  0  0  0  0  0  0  0  0  0  0  0
    0.1047    2.4248   25.5567 H   0  0  0  0  0  0  0  0  0  0  0  0
   -1.2862    4.9149   27.2839 H   0  0  0  0  0  0  0  0  0  0  0  0
   -1.7418    5.8011   25.8368 H   0  0  0  0  0  0  0  0  0  0  0  0
   -2.9674    4.9194   26.7818 H   0  0  0  0  0  0  0  0  0  0  0  0
   -4.6645    1.9113   27.0023 H   0  0  0  0  0  0  0  0  0  0  0  0
   -4.5747    2.4323   25.5529 H   0  0  0  0  0  0  0  0  0  0  0  0
   -6.8916    1.2279   25.7110 H   0  0  0  0  0  0  0  0  0  0  0  0
   -6.2534    1.1537   24.4118 H   0  0  0  0  0  0  0  0  0  0  0  0
   -6.7909   -1.7462   24.7829 H   0  0  0  0  0  0  0  0  0  0  0  0
   -7.0884   -3.3107   26.3022 H   0  0  0  0  0  0  0  0  0  0  0  0
  -10.6177   -5.7115   29.1494 H   0  0  0  0  0  0  0  0  0  0  0  0
   -7.9778   -6.0627   29.9387 H   0  0  0  0  0  0  0  0  0  0  0  0
   -6.7618   -4.0838   28.8675 H   0  0  0  0  0  0  0  0  0  0  0  0
   -4.2827   -2.3378   26.8234 H   0  0  0  0  0  0  0  0  0  0  0  0
   -3.8395   -2.1766   25.0904 H   0  0  0  0  0  0  0  0  0  0  0  0
   -2.0916   -0.6039   26.4499 H   0  0  0  0  0  0  0  0  0  0  0  0
   -3.1217   -0.1208   27.4871 H   0  0  0  0  0  0  0  0  0  0  0  0
   -2.5315    2.7595   23.7345 H   0  0  0  0  0  0  0  0  0  0  0  0
   -3.4715    5.6248   24.1828 H   0  0  0  0  0  0  0  0  0  0  0  0
   -4.1517    4.3942   23.1219 H   0  0  0  0  0  0  0  0  0  0  0  0
   -4.3352    4.2542   24.8691 H   0  0  0  0  0  0  0  0  0  0  0  0
   -0.5262    3.8003   22.8894 H   0  0  0  0  0  0  0  0  0  0  0  0
   -1.9277    4.5472   22.1366 H   0  0  0  0  0  0  0  0  0  0  0  0
   -1.0902    5.4113   23.4134 H   0  0  0  0  0  0  0  0  0  0  0  0
  1  2  1  0
  2  3  2  0
  2  4  1  0
  4  5  1  0
  5  6  1  0
  5  7  1  0
  7  8  2  0
  7  9  1  0
  9 10  1  0
 10 11  1  0
 11 12  1  0
 12 13  1  0
 13 14  1  0
 14 15  2  0
 14 16  1  0
 16 17  2  0
 17 18  1  0
 18 19  2  0
 19 20  1  0
 12 21  1  0
 21 22  1  0
  5 23  1  0
 23 24  1  0
 23 25  1  0
 22  9  1  0
 20 16  1  0
  1 26  1  0
  1 27  1  0
  1 28  1  0
  4 29  1  0
  6 30  1  0
  6 31  1  0
  6 32  1  0
 10 33  1  0
 10 34  1  0
 11 35  1  0
 11 36  1  0
 12 37  1  0
 13 38  1  0
 18 39  1  0
 19 40  1  0
 20 41  1  0
 21 42  1  0
 21 43  1  0
 22 44  1  0
 22 45  1  0
 23 46  1  0
 24 47  1  0
 24 48  1  0
 24 49  1  0
 25 50  1  0
 25 51  1  0
 25 52  1  0
M  END
>  <Energy>  (400) 
417.77110741749721

>  <compound_id>  (400) 
38617

>  <target_id>  (400) 
1

>  <reference_id>  (400) 
101

>  <inspiration_ids>  (400) 
[44, 101]

>  <energy_score>  (400) 
340.78801108431094

>  <distance_score>  (400) 
13.477165212747945

>  <path>  (400) 
/opt/xchem-fragalysis-2/maxwin/BulkDock/SCRATCH/511020/C38617-P101/C38617-P101.minimised.mol

>  <scratch_subdir>  (400) 
/opt/xchem-fragalysis-2/maxwin/BulkDock/SCRATCH/511020/C38617-P101

>  <fragmenstein_runtime>  (400) 
26.819227933883667

>  <fragmenstein_outcome>  (400) 
too moved

>  <fragmenstein_mode>  (400) 
expansion

>  <fragmenstein_error>  (400) 


$$$$
C38620-P44
     RDKit          3D

 52 53  0  0  0  0  0  0  0  0999 V2000
   -7.5530  -13.3902   26.8330 C   0  0  0  0  0  0  0  0  0  0  0  0
   -6.8868  -13.3842   27.9969 O   0  0  0  0  0  0  0  0  0  0  0  0
   -7.4009  -14.2564   28.8604 C   0  0  0  0  0  0  0  0  0  0  0  0
   -6.1801  -15.0545   30.2419 C   0  0  0  0  0  0  0  0  0  0  0  0
   -6.4863  -14.9516   31.5183 N   0  0  0  0  0  0  0  0  0  0  0  0
   -5.8033  -15.8112   29.7632 C   0  0  0  0  0  0  0  0  0  0  0  0
   -6.4334  -17.5198   28.7454 C   0  0  0  0  0  0  0  0  0  0  0  0
   -7.7141  -18.1307   28.0020 N   0  0  0  0  0  0  0  0  0  0  0  0
   -7.1222  -19.7260   26.9707 C   0  0  0  0  0  0  0  0  0  0  0  0
   -5.8215  -19.5292   26.7748 C   0  0  0  0  0  0  0  0  0  0  0  0
   -5.4569  -18.3469   27.6942 N   0  0  0  0  0  0  0  0  0  0  0  0
   -6.6802  -13.3629   32.2307 C   0  0  0  0  0  0  0  0  0  0  0  0
   -6.5239  -12.3055   31.8330 O   0  0  0  0  0  0  0  0  0  0  0  0
   -7.0622  -13.3567   33.7449 C   0  0  0  0  0  0  0  0  0  0  0  0
   -7.1344  -11.8635   34.3249 N   0  0  0  0  0  0  0  0  0  0  0  0
   -8.1800  -11.0259   33.6809 C   0  0  0  0  0  0  0  0  0  0  0  0
   -8.2771   -9.5852   34.2241 C   0  0  0  0  0  0  0  0  0  0  0  0
   -6.9476   -8.8422   34.1448 C   0  0  0  0  0  0  0  0  0  0  0  0
   -5.8852   -9.6658   34.8932 C   0  0  0  0  0  0  0  0  0  0  0  0
   -4.5312   -9.0572   34.9485 N   0  0  0  0  0  0  0  0  0  0  0  0
   -4.1484   -8.3198   33.7488 C   0  0  0  0  0  0  0  0  0  0  0  0
   -4.3933   -8.1930   36.1239 C   0  0  0  0  0  0  0  0  0  0  0  0
   -5.8362  -11.1208   34.3019 C   0  0  0  0  0  0  0  0  0  0  0  0
   -7.1314  -12.5372   26.2992 H   0  0  0  0  0  0  0  0  0  0  0  0
   -7.4585  -14.1985   26.1062 H   0  0  0  0  0  0  0  0  0  0  0  0
   -8.6169  -13.4237   27.1055 H   0  0  0  0  0  0  0  0  0  0  0  0
   -8.3637  -14.0346   29.2879 H   0  0  0  0  0  0  0  0  0  0  0  0
   -7.8610  -15.0801   28.2617 H   0  0  0  0  0  0  0  0  0  0  0  0
   -6.1723  -13.8988   30.1723 H   0  0  0  0  0  0  0  0  0  0  0  0
   -5.0883  -14.5206   30.5740 H   0  0  0  0  0  0  0  0  0  0  0  0
   -5.9433  -15.3876   28.7185 H   0  0  0  0  0  0  0  0  0  0  0  0
   -4.7949  -16.2665   30.0010 H   0  0  0  0  0  0  0  0  0  0  0  0
   -7.6437  -20.6908   27.3116 H   0  0  0  0  0  0  0  0  0  0  0  0
   -5.0992  -20.0696   26.1680 H   0  0  0  0  0  0  0  0  0  0  0  0
   -4.5295  -17.9748   27.5500 H   0  0  0  0  0  0  0  0  0  0  0  0
   -6.3091  -13.9026   34.3194 H   0  0  0  0  0  0  0  0  0  0  0  0
   -8.0446  -13.8173   33.8793 H   0  0  0  0  0  0  0  0  0  0  0  0
   -8.0341  -10.9199   32.6062 H   0  0  0  0  0  0  0  0  0  0  0  0
   -9.1511  -11.5129   33.8274 H   0  0  0  0  0  0  0  0  0  0  0  0
   -9.0381   -9.0356   33.6578 H   0  0  0  0  0  0  0  0  0  0  0  0
   -8.6196   -9.6164   35.2662 H   0  0  0  0  0  0  0  0  0  0  0  0
   -6.6829   -8.7087   33.0894 H   0  0  0  0  0  0  0  0  0  0  0  0
   -7.0566   -7.8479   34.5920 H   0  0  0  0  0  0  0  0  0  0  0  0
   -6.2347   -9.8002   35.9278 H   0  0  0  0  0  0  0  0  0  0  0  0
   -4.3010   -8.9163   32.8467 H   0  0  0  0  0  0  0  0  0  0  0  0
   -4.7021   -7.3809   33.6340 H   0  0  0  0  0  0  0  0  0  0  0  0
   -3.0807   -8.0750   33.7823 H   0  0  0  0  0  0  0  0  0  0  0  0
   -5.0944   -7.3512   36.1038 H   0  0  0  0  0  0  0  0  0  0  0  0
   -4.5602   -8.7623   37.0451 H   0  0  0  0  0  0  0  0  0  0  0  0
   -3.3755   -7.7920   36.1904 H   0  0  0  0  0  0  0  0  0  0  0  0
   -5.1007  -11.7070   34.8651 H   0  0  0  0  0  0  0  0  0  0  0  0
   -5.4764  -11.0074   33.2841 H   0  0  0  0  0  0  0  0  0  0  0  0
  1  2  1  0
  2  3  1  0
  3  4  1  0
  4  5  1  0
  5  6  1  0
  6  7  1  0
  7  8  2  0
  8  9  1  0
  9 10  2  0
 10 11  1  0
  5 12  1  0
 12 13  2  0
 12 14  1  0
 14 15  1  0
 15 16  1  0
 16 17  1  0
 17 18  1  0
 18 19  1  0
 19 20  1  0
 20 21  1  0
 20 22  1  0
 19 23  1  0
 11  7  1  0
 23 15  1  0
  1 24  1  0
  1 25  1  0
  1 26  1  0
  3 27  1  0
  3 28  1  0
  4 29  1  0
  4 30  1  0
  6 31  1  0
  6 32  1  0
  9 33  1  0
 10 34  1  0
 11 35  1  0
 14 36  1  0
 14 37  1  0
 16 38  1  0
 16 39  1  0
 17 40  1  0
 17 41  1  0
 18 42  1  0
 18 43  1  0
 19 44  1  0
 21 45  1  0
 21 46  1  0
 21 47  1  0
 22 48  1  0
 22 49  1  0
 22 50  1  0
 23 51  1  0
 23 52  1  0
M  END
>  <Energy>  (401) 
1207.9500044900246

>  <compound_id>  (401) 
38620

>  <target_id>  (401) 
1

>  <reference_id>  (401) 
44

>  <inspiration_ids>  (401) 
[44, 101]

>  <energy_score>  (401) 
1055.954076612407

>  <distance_score>  (401) 
13.521361530416494

>  <path>  (401) 
/opt/xchem-fragalysis-2/maxwin/BulkDock/SCRATCH/511020/C38620-P44/C38620-P44.minimised.mol

>  <scratch_subdir>  (401) 
/opt/xchem-fragalysis-2/maxwin/BulkDock/SCRATCH/511020/C38620-P44

>  <fragmenstein_runtime>  (401) 
29.993200540542603

>  <fragmenstein_outcome>  (401) 
too moved

>  <fragmenstein_mode>  (401) 
expansion

>  <fragmenstein_error>  (401) 


$$$$
C38620-P101
     RDKit          3D

 52 53  0  0  0  0  0  0  0  0999 V2000
  -15.2271   -9.4117   29.8984 C   0  0  0  0  0  0  0  0  0  0  0  0
  -14.4876   -9.9665   28.8133 O   0  0  0  0  0  0  0  0  0  0  0  0
  -13.7696   -8.9391   28.1177 C   0  0  0  0  0  0  0  0  0  0  0  0
  -12.6943   -9.7373   26.8224 C   0  0  0  0  0  0  0  0  0  0  0  0
  -11.4593   -9.2487   26.7303 N   0  0  0  0  0  0  0  0  0  0  0  0
  -13.0870  -10.3097   26.4021 C   0  0  0  0  0  0  0  0  0  0  0  0
  -13.1044  -12.0148   26.8412 C   0  0  0  0  0  0  0  0  0  0  0  0
  -12.3415  -12.9823   26.3773 N   0  0  0  0  0  0  0  0  0  0  0  0
  -12.7438  -14.1326   27.0260 C   0  0  0  0  0  0  0  0  0  0  0  0
  -13.7898  -13.8700   27.8732 C   0  0  0  0  0  0  0  0  0  0  0  0
  -14.0204  -12.5243   27.7411 N   0  0  0  0  0  0  0  0  0  0  0  0
  -11.1131   -7.6394   27.0700 C   0  0  0  0  0  0  0  0  0  0  0  0
  -11.7858   -6.7303   27.3026 O   0  0  0  0  0  0  0  0  0  0  0  0
   -9.5459   -7.5775   26.9096 C   0  0  0  0  0  0  0  0  0  0  0  0
   -8.8621   -6.2606   27.1708 N   0  0  0  0  0  0  0  0  0  0  0  0
   -8.7771   -5.8709   28.5710 C   0  0  0  0  0  0  0  0  0  0  0  0
   -7.8070   -4.6874   28.7613 C   0  0  0  0  0  0  0  0  0  0  0  0
   -8.0079   -3.5297   27.7760 C   0  0  0  0  0  0  0  0  0  0  0  0
   -9.2828   -3.7326   26.9460 C   0  0  0  0  0  0  0  0  0  0  0  0
   -9.6189   -2.6521   25.9948 N   0  0  0  0  0  0  0  0  0  0  0  0
   -9.9929   -1.4100   26.6733 C   0  0  0  0  0  0  0  0  0  0  0  0
   -8.5950   -2.3830   24.9952 C   0  0  0  0  0  0  0  0  0  0  0  0
   -9.2535   -5.1533   26.2766 C   0  0  0  0  0  0  0  0  0  0  0  0
  -14.5510   -8.9515   30.6253 H   0  0  0  0  0  0  0  0  0  0  0  0
  -15.9490   -8.6755   29.5321 H   0  0  0  0  0  0  0  0  0  0  0  0
  -15.7712  -10.2219   30.3909 H   0  0  0  0  0  0  0  0  0  0  0  0
  -14.4825   -8.2753   27.6102 H   0  0  0  0  0  0  0  0  0  0  0  0
  -13.1231   -8.3764   28.8021 H   0  0  0  0  0  0  0  0  0  0  0  0
  -12.2049  -10.0751   27.9046 H   0  0  0  0  0  0  0  0  0  0  0  0
  -12.9510   -8.5969   26.3219 H   0  0  0  0  0  0  0  0  0  0  0  0
  -14.2316   -9.9730   26.0023 H   0  0  0  0  0  0  0  0  0  0  0  0
  -12.7846  -10.6375   25.2521 H   0  0  0  0  0  0  0  0  0  0  0  0
  -12.2471  -15.0775   26.8533 H   0  0  0  0  0  0  0  0  0  0  0  0
  -14.3580  -14.4886   28.5521 H   0  0  0  0  0  0  0  0  0  0  0  0
  -14.6807  -11.9612   28.2663 H   0  0  0  0  0  0  0  0  0  0  0  0
   -9.3150   -7.8734   25.8791 H   0  0  0  0  0  0  0  0  0  0  0  0
   -9.1085   -8.3360   27.5688 H   0  0  0  0  0  0  0  0  0  0  0  0
   -9.7667   -5.6166   28.9698 H   0  0  0  0  0  0  0  0  0  0  0  0
   -8.4031   -6.7077   29.1734 H   0  0  0  0  0  0  0  0  0  0  0  0
   -7.9115   -4.3135   29.7872 H   0  0  0  0  0  0  0  0  0  0  0  0
   -6.7774   -5.0472   28.6749 H   0  0  0  0  0  0  0  0  0  0  0  0
   -7.1332   -3.4725   27.1213 H   0  0  0  0  0  0  0  0  0  0  0  0
   -8.0420   -2.5891   28.3362 H   0  0  0  0  0  0  0  0  0  0  0  0
  -10.1259   -3.7691   27.6519 H   0  0  0  0  0  0  0  0  0  0  0  0
  -10.3853   -0.6847   25.9513 H   0  0  0  0  0  0  0  0  0  0  0  0
   -9.1497   -0.9437   27.1942 H   0  0  0  0  0  0  0  0  0  0  0  0
  -10.7948   -1.5864   27.3988 H   0  0  0  0  0  0  0  0  0  0  0  0
   -7.6730   -1.9908   25.4353 H   0  0  0  0  0  0  0  0  0  0  0  0
   -8.9662   -1.6442   24.2758 H   0  0  0  0  0  0  0  0  0  0  0  0
   -8.3507   -3.2733   24.4092 H   0  0  0  0  0  0  0  0  0  0  0  0
   -8.5393   -5.1642   25.4467 H   0  0  0  0  0  0  0  0  0  0  0  0
  -10.2401   -5.3317   25.8333 H   0  0  0  0  0  0  0  0  0  0  0  0
  1  2  1  0
  2  3  1  0
  3  4  1  0
  4  5  1  0
  5  6  1  0
  6  7  1  0
  7  8  2  0
  8  9  1  0
  9 10  2  0
 10 11  1  0
  5 12  1  0
 12 13  2  0
 12 14  1  0
 14 15  1  0
 15 16  1  0
 16 17  1  0
 17 18  1  0
 18 19  1  0
 19 20  1  0
 20 21  1  0
 20 22  1  0
 19 23  1  0
 11  7  1  0
 23 15  1  0
  1 24  1  0
  1 25  1  0
  1 26  1  0
  3 27  1  0
  3 28  1  0
  4 29  1  0
  4 30  1  0
  6 31  1  0
  6 32  1  0
  9 33  1  0
 10 34  1  0
 11 35  1  0
 14 36  1  0
 14 37  1  0
 16 38  1  0
 16 39  1  0
 17 40  1  0
 17 41  1  0
 18 42  1  0
 18 43  1  0
 19 44  1  0
 21 45  1  0
 21 46  1  0
 21 47  1  0
 22 48  1  0
 22 49  1  0
 22 50  1  0
 23 51  1  0
 23 52  1  0
M  END
>  <Energy>  (402) 
857.28451087066924

>  <compound_id>  (402) 
38620

>  <target_id>  (402) 
1

>  <reference_id>  (402) 
101

>  <inspiration_ids>  (402) 
[44, 101]

>  <energy_score>  (402) 
705.2885829930414

>  <distance_score>  (402) 
11.618021355542243

>  <path>  (402) 
/opt/xchem-fragalysis-2/maxwin/BulkDock/SCRATCH/511020/C38620-P101/C38620-P101.minimised.mol

>  <scratch_subdir>  (402) 
/opt/xchem-fragalysis-2/maxwin/BulkDock/SCRATCH/511020/C38620-P101

>  <fragmenstein_runtime>  (402) 
50.61626625061035

>  <fragmenstein_outcome>  (402) 
too moved

>  <fragmenstein_mode>  (402) 
expansion

>  <fragmenstein_error>  (402) 


$$$$
C38624-P44
     RDKit          3D

 49 50  0  0  0  0  0  0  0  0999 V2000
   -3.7088  -10.8958   35.2050 C   0  0  0  0  0  0  0  0  0  0  0  0
   -3.2080   -9.2533   35.7897 S   0  0  0  0  0  0  0  0  0  0  0  0
   -2.1971   -8.7317   34.3473 C   0  0  0  0  0  0  0  0  0  0  0  0
   -1.3006   -7.5665   34.7509 C   0  0  0  0  0  0  0  0  0  0  0  0
   -3.0884   -8.3320   33.1469 C   0  0  0  0  0  0  0  0  0  0  0  0
   -2.7893   -8.7242   32.0524 O   0  0  0  0  0  0  0  0  0  0  0  0
   -4.1336   -7.4381   33.5711 N   0  0  0  0  0  0  0  0  0  0  0  0
   -5.1983   -6.8140   32.8323 C   0  0  0  0  0  0  0  0  0  0  0  0
   -6.5925   -7.4275   33.0339 C   0  0  0  0  0  0  0  0  0  0  0  0
   -7.4991   -6.9483   31.9093 C   0  0  0  0  0  0  0  0  0  0  0  0
   -8.6768   -7.8917   31.8557 C   0  0  0  0  0  0  0  0  0  0  0  0
   -8.2009   -9.3584   31.9801 C   0  0  0  0  0  0  0  0  0  0  0  0
   -7.7760   -9.8185   33.3751 N   0  0  0  0  0  0  0  0  0  0  0  0
   -7.9205  -11.2551   33.4933 C   0  0  0  0  0  0  0  0  0  0  0  0
   -7.1346  -12.1399   33.2718 O   0  0  0  0  0  0  0  0  0  0  0  0
   -9.3401  -11.6489   33.9728 C   0  0  0  0  0  0  0  0  0  0  0  0
   -9.3744  -12.9859   34.7534 C   0  0  0  0  0  0  0  0  0  0  0  0
   -9.9971  -14.2285   34.1257 C   0  0  0  0  0  0  0  0  0  0  0  0
   -9.5778  -15.4679   34.3233 N   0  0  0  0  0  0  0  0  0  0  0  0
  -10.5972  -16.2960   33.9346 C   0  0  0  0  0  0  0  0  0  0  0  0
  -11.6200  -15.5681   33.3843 C   0  0  0  0  0  0  0  0  0  0  0  0
  -11.2231  -14.2603   33.4979 N   0  0  0  0  0  0  0  0  0  0  0  0
   -6.5633   -8.9749   33.0463 C   0  0  0  0  0  0  0  0  0  0  0  0
   -2.8317  -11.5354   35.0772 H   0  0  0  0  0  0  0  0  0  0  0  0
   -4.2485  -10.8198   34.2595 H   0  0  0  0  0  0  0  0  0  0  0  0
   -4.3688  -11.3544   35.9459 H   0  0  0  0  0  0  0  0  0  0  0  0
   -1.5696   -9.5783   34.0466 H   0  0  0  0  0  0  0  0  0  0  0  0
   -0.6995   -7.2373   33.8956 H   0  0  0  0  0  0  0  0  0  0  0  0
   -1.8741   -6.6969   35.0912 H   0  0  0  0  0  0  0  0  0  0  0  0
   -0.6078   -7.8557   35.5487 H   0  0  0  0  0  0  0  0  0  0  0  0
   -4.1425   -7.3977   34.5904 H   0  0  0  0  0  0  0  0  0  0  0  0
   -4.9172   -6.9005   31.7790 H   0  0  0  0  0  0  0  0  0  0  0  0
   -5.2091   -5.7517   33.0970 H   0  0  0  0  0  0  0  0  0  0  0  0
   -6.9969   -7.0951   33.9991 H   0  0  0  0  0  0  0  0  0  0  0  0
   -6.9800   -6.9837   30.9432 H   0  0  0  0  0  0  0  0  0  0  0  0
   -7.8222   -5.9139   32.0670 H   0  0  0  0  0  0  0  0  0  0  0  0
   -9.2183   -7.7542   30.9130 H   0  0  0  0  0  0  0  0  0  0  0  0
   -9.3765   -7.6675   32.6702 H   0  0  0  0  0  0  0  0  0  0  0  0
   -7.5387   -9.6832   31.1621 H   0  0  0  0  0  0  0  0  0  0  0  0
   -9.1149   -9.9367   31.7832 H   0  0  0  0  0  0  0  0  0  0  0  0
   -9.6819  -10.8523   34.6459 H   0  0  0  0  0  0  0  0  0  0  0  0
  -10.0168  -11.6672   33.1155 H   0  0  0  0  0  0  0  0  0  0  0  0
   -8.3700  -13.2543   35.1036 H   0  0  0  0  0  0  0  0  0  0  0  0
   -9.9602  -12.8075   35.6665 H   0  0  0  0  0  0  0  0  0  0  0  0
  -10.5302  -17.3679   34.0712 H   0  0  0  0  0  0  0  0  0  0  0  0
  -12.5779  -15.8466   32.9695 H   0  0  0  0  0  0  0  0  0  0  0  0
  -11.7871  -13.4520   33.2787 H   0  0  0  0  0  0  0  0  0  0  0  0
   -5.9400   -9.4159   32.2530 H   0  0  0  0  0  0  0  0  0  0  0  0
   -5.9523   -9.2185   33.9277 H   0  0  0  0  0  0  0  0  0  0  0  0
  1  2  1  0
  2  3  1  0
  3  4  1  0
  3  5  1  0
  5  6  2  0
  5  7  1  0
  7  8  1  0
  8  9  1  0
  9 10  1  0
 10 11  1  0
 11 12  1  0
 12 13  1  0
 13 14  1  0
 14 15  2  0
 14 16  1  0
 16 17  1  0
 17 18  1  0
 18 19  2  0
 19 20  1  0
 20 21  2  0
 21 22  1  0
 13 23  1  0
 23  9  1  0
 22 18  1  0
  1 24  1  0
  1 25  1  0
  1 26  1  0
  3 27  1  0
  4 28  1  0
  4 29  1  0
  4 30  1  0
  7 31  1  0
  8 32  1  0
  8 33  1  0
  9 34  1  0
 10 35  1  0
 10 36  1  0
 11 37  1  0
 11 38  1  0
 12 39  1  0
 12 40  1  0
 16 41  1  0
 16 42  1  0
 17 43  1  0
 17 44  1  0
 20 45  1  0
 21 46  1  0
 22 47  1  0
 23 48  1  0
 23 49  1  0
M  END
>  <Energy>  (403) 
83.530389441406768

>  <compound_id>  (403) 
38624

>  <target_id>  (403) 
1

>  <reference_id>  (403) 
44

>  <inspiration_ids>  (403) 
[44, 101]

>  <energy_score>  (403) 
29.410872073600103

>  <distance_score>  (403) 
13.181379543133177

>  <path>  (403) 
/opt/xchem-fragalysis-2/maxwin/BulkDock/SCRATCH/511020/C38624-P44/C38624-P44.minimised.mol

>  <scratch_subdir>  (403) 
/opt/xchem-fragalysis-2/maxwin/BulkDock/SCRATCH/511020/C38624-P44

>  <fragmenstein_runtime>  (403) 
29.390028715133667

>  <fragmenstein_outcome>  (403) 
too moved

>  <fragmenstein_mode>  (403) 
expansion

>  <fragmenstein_error>  (403) 


$$$$
C38624-P101
     RDKit          3D

 49 50  0  0  0  0  0  0  0  0999 V2000
   -1.4875   -1.3227   30.9884 C   0  0  0  0  0  0  0  0  0  0  0  0
   -1.5627    0.3685   30.3460 S   0  0  0  0  0  0  0  0  0  0  0  0
   -1.1354    0.0564   28.5685 C   0  0  0  0  0  0  0  0  0  0  0  0
    0.2221   -0.6367   28.4633 C   0  0  0  0  0  0  0  0  0  0  0  0
   -1.1484    1.3919   27.7583 C   0  0  0  0  0  0  0  0  0  0  0  0
   -0.2744    1.6023   26.9662 O   0  0  0  0  0  0  0  0  0  0  0  0
   -2.3079    2.1719   28.1065 N   0  0  0  0  0  0  0  0  0  0  0  0
   -2.7245    3.4830   27.6845 C   0  0  0  0  0  0  0  0  0  0  0  0
   -3.9165    3.8533   26.6763 C   0  0  0  0  0  0  0  0  0  0  0  0
   -3.3181    3.9592   25.3415 C   0  0  0  0  0  0  0  0  0  0  0  0
   -3.2969    2.5064   25.1882 C   0  0  0  0  0  0  0  0  0  0  0  0
   -4.7017    1.7020   25.9479 C   0  0  0  0  0  0  0  0  0  0  0  0
   -6.2222    1.9603   25.6041 N   0  0  0  0  0  0  0  0  0  0  0  0
   -7.5942    0.9463   26.1389 C   0  0  0  0  0  0  0  0  0  0  0  0
   -8.2987    1.0302   27.1561 O   0  0  0  0  0  0  0  0  0  0  0  0
   -7.9910   -0.4054   25.3065 C   0  0  0  0  0  0  0  0  0  0  0  0
   -9.3398   -1.1385   24.9977 C   0  0  0  0  0  0  0  0  0  0  0  0
   -9.3060   -2.7438   25.1827 C   0  0  0  0  0  0  0  0  0  0  0  0
   -8.8010   -3.6577   24.3607 N   0  0  0  0  0  0  0  0  0  0  0  0
   -9.0783   -4.9020   24.9028 C   0  0  0  0  0  0  0  0  0  0  0  0
   -9.7526   -4.7657   26.0878 C   0  0  0  0  0  0  0  0  0  0  0  0
   -9.8957   -3.4066   26.2542 N   0  0  0  0  0  0  0  0  0  0  0  0
   -5.6572    3.2652   26.2455 C   0  0  0  0  0  0  0  0  0  0  0  0
   -1.9734   -1.3505   31.9675 H   0  0  0  0  0  0  0  0  0  0  0  0
   -0.4495   -1.6387   31.1174 H   0  0  0  0  0  0  0  0  0  0  0  0
   -2.0090   -2.0172   30.3251 H   0  0  0  0  0  0  0  0  0  0  0  0
   -1.9129   -0.5822   28.1330 H   0  0  0  0  0  0  0  0  0  0  0  0
    1.0075   -0.0639   28.9695 H   0  0  0  0  0  0  0  0  0  0  0  0
    0.1995   -1.6469   28.8826 H   0  0  0  0  0  0  0  0  0  0  0  0
    0.5314   -0.7419   27.4206 H   0  0  0  0  0  0  0  0  0  0  0  0
   -2.7852    1.7256   28.8797 H   0  0  0  0  0  0  0  0  0  0  0  0
   -2.8080    4.0861   28.5839 H   0  0  0  0  0  0  0  0  0  0  0  0
   -1.8055    3.9114   27.2558 H   0  0  0  0  0  0  0  0  0  0  0  0
   -3.9365    4.8755   27.0073 H   0  0  0  0  0  0  0  0  0  0  0  0
   -2.3254    4.4156   25.2867 H   0  0  0  0  0  0  0  0  0  0  0  0
   -3.9567    4.4629   24.6101 H   0  0  0  0  0  0  0  0  0  0  0  0
   -3.0489    2.4603   24.1265 H   0  0  0  0  0  0  0  0  0  0  0  0
   -2.4250    2.0283   25.6379 H   0  0  0  0  0  0  0  0  0  0  0  0
   -4.4919    1.7349   26.9930 H   0  0  0  0  0  0  0  0  0  0  0  0
   -4.5030    0.7420   25.5978 H   0  0  0  0  0  0  0  0  0  0  0  0
   -7.1518   -0.9567   24.9423 H   0  0  0  0  0  0  0  0  0  0  0  0
   -7.9099   -0.9945   26.2542 H   0  0  0  0  0  0  0  0  0  0  0  0
  -10.1388   -0.7427   25.6355 H   0  0  0  0  0  0  0  0  0  0  0  0
   -9.6159   -0.9515   23.9539 H   0  0  0  0  0  0  0  0  0  0  0  0
   -8.7714   -5.8106   24.4016 H   0  0  0  0  0  0  0  0  0  0  0  0
  -10.1416   -5.4778   26.8007 H   0  0  0  0  0  0  0  0  0  0  0  0
  -10.3673   -2.9465   27.0199 H   0  0  0  0  0  0  0  0  0  0  0  0
   -6.3077    3.4963   27.0844 H   0  0  0  0  0  0  0  0  0  0  0  0
   -5.8811    3.9037   25.4197 H   0  0  0  0  0  0  0  0  0  0  0  0
  1  2  1  0
  2  3  1  0
  3  4  1  0
  3  5  1  0
  5  6  2  0
  5  7  1  0
  7  8  1  0
  8  9  1  0
  9 10  1  0
 10 11  1  0
 11 12  1  0
 12 13  1  0
 13 14  1  0
 14 15  2  0
 14 16  1  0
 16 17  1  0
 17 18  1  0
 18 19  2  0
 19 20  1  0
 20 21  2  0
 21 22  1  0
 13 23  1  0
 23  9  1  0
 22 18  1  0
  1 24  1  0
  1 25  1  0
  1 26  1  0
  3 27  1  0
  4 28  1  0
  4 29  1  0
  4 30  1  0
  7 31  1  0
  8 32  1  0
  8 33  1  0
  9 34  1  0
 10 35  1  0
 10 36  1  0
 11 37  1  0
 11 38  1  0
 12 39  1  0
 12 40  1  0
 16 41  1  0
 16 42  1  0
 17 43  1  0
 17 44  1  0
 20 45  1  0
 21 46  1  0
 22 47  1  0
 23 48  1  0
 23 49  1  0
M  END
>  <Energy>  (404) 
333.32889661388737

>  <compound_id>  (404) 
38624

>  <target_id>  (404) 
1

>  <reference_id>  (404) 
101

>  <inspiration_ids>  (404) 
[44, 101]

>  <energy_score>  (404) 
279.2093792460876

>  <distance_score>  (404) 
13.914810969679904

>  <path>  (404) 
/opt/xchem-fragalysis-2/maxwin/BulkDock/SCRATCH/511020/C38624-P101/C38624-P101.minimised.mol

>  <scratch_subdir>  (404) 
/opt/xchem-fragalysis-2/maxwin/BulkDock/SCRATCH/511020/C38624-P101

>  <fragmenstein_runtime>  (404) 
20.037612199783325

>  <fragmenstein_outcome>  (404) 
too moved

>  <fragmenstein_mode>  (404) 
expansion

>  <fragmenstein_error>  (404) 


$$$$
C38626-P44
     RDKit          3D

 41 42  0  0  0  0  0  0  0  0999 V2000
   -5.8141  -11.8787   27.1728 O   0  0  0  0  0  0  0  0  0  0  0  0
   -6.3580  -11.4255   26.2049 C   0  0  0  0  0  0  0  0  0  0  0  0
   -6.4483  -12.3043   25.1618 C   0  0  0  0  0  0  0  0  0  0  0  0
   -7.2120  -13.6399   26.1745 C   0  0  0  0  0  0  0  0  0  0  0  0
   -7.6793  -13.5333   27.3929 N   0  0  0  0  0  0  0  0  0  0  0  0
   -8.8214  -14.2410   27.4120 C   0  0  0  0  0  0  0  0  0  0  0  0
   -8.8258  -15.2701   26.5224 C   0  0  0  0  0  0  0  0  0  0  0  0
   -7.8902  -14.7951   25.6554 N   0  0  0  0  0  0  0  0  0  0  0  0
   -7.0021  -10.1706   26.0050 N   0  0  0  0  0  0  0  0  0  0  0  0
   -7.1586   -8.6439   27.1419 C   0  0  0  0  0  0  0  0  0  0  0  0
   -7.7921   -8.7351   28.5923 C   0  0  0  0  0  0  0  0  0  0  0  0
   -7.4227   -7.6725   29.4744 O   0  0  0  0  0  0  0  0  0  0  0  0
   -7.6693   -7.2104   26.4688 C   0  0  0  0  0  0  0  0  0  0  0  0
   -7.3775   -5.7679   26.7523 N   0  0  0  0  0  0  0  0  0  0  0  0
   -8.2359   -4.9206   25.8522 C   0  0  0  0  0  0  0  0  0  0  0  0
   -9.2418   -3.9957   26.5402 C   0  0  0  0  0  0  0  0  0  0  0  0
   -8.5582   -3.0881   27.5464 C   0  0  0  0  0  0  0  0  0  0  0  0
   -7.4854   -3.8408   28.3172 C   0  0  0  0  0  0  0  0  0  0  0  0
   -7.5599   -5.3508   28.1434 C   0  0  0  0  0  0  0  0  0  0  0  0
   -6.9164  -11.6918   24.4120 H   0  0  0  0  0  0  0  0  0  0  0  0
   -5.6281  -12.5380   24.4788 H   0  0  0  0  0  0  0  0  0  0  0  0
   -9.6160  -13.9153   28.0444 H   0  0  0  0  0  0  0  0  0  0  0  0
   -9.5072  -16.0751   26.3079 H   0  0  0  0  0  0  0  0  0  0  0  0
   -7.6498  -15.1335   24.7609 H   0  0  0  0  0  0  0  0  0  0  0  0
   -7.2566  -10.0984   25.0767 H   0  0  0  0  0  0  0  0  0  0  0  0
   -6.1200   -8.3858   27.3749 H   0  0  0  0  0  0  0  0  0  0  0  0
   -8.8834   -8.7556   28.5470 H   0  0  0  0  0  0  0  0  0  0  0  0
   -7.4184   -9.5608   29.1771 H   0  0  0  0  0  0  0  0  0  0  0  0
   -6.4973   -7.8391   29.7172 H   0  0  0  0  0  0  0  0  0  0  0  0
   -8.7505   -7.2247   26.6263 H   0  0  0  0  0  0  0  0  0  0  0  0
   -7.4180   -7.3083   25.4120 H   0  0  0  0  0  0  0  0  0  0  0  0
   -8.7816   -5.5352   25.1245 H   0  0  0  0  0  0  0  0  0  0  0  0
   -7.6043   -4.2724   25.2453 H   0  0  0  0  0  0  0  0  0  0  0  0
   -9.7675   -3.3896   25.7933 H   0  0  0  0  0  0  0  0  0  0  0  0
  -10.0085   -4.5995   27.0422 H   0  0  0  0  0  0  0  0  0  0  0  0
   -9.3081   -2.6859   28.2377 H   0  0  0  0  0  0  0  0  0  0  0  0
   -8.1231   -2.2244   27.0353 H   0  0  0  0  0  0  0  0  0  0  0  0
   -6.4961   -3.5255   27.9808 H   0  0  0  0  0  0  0  0  0  0  0  0
   -7.5669   -3.6028   29.3837 H   0  0  0  0  0  0  0  0  0  0  0  0
   -8.5166   -5.7065   28.5450 H   0  0  0  0  0  0  0  0  0  0  0  0
   -6.7513   -5.7464   28.7500 H   0  0  0  0  0  0  0  0  0  0  0  0
  1  2  2  0
  2  3  1  0
  3  4  1  0
  4  5  2  0
  5  6  1  0
  6  7  2  0
  7  8  1  0
  2  9  1  0
  9 10  1  0
 10 11  1  0
 11 12  1  0
 10 13  1  0
 13 14  1  0
 14 15  1  0
 15 16  1  0
 16 17  1  0
 17 18  1  0
 18 19  1  0
  8  4  1  0
 19 14  1  0
  3 20  1  0
  3 21  1  0
  6 22  1  0
  7 23  1  0
  8 24  1  0
  9 25  1  0
 10 26  1  0
 11 27  1  0
 11 28  1  0
 12 29  1  0
 13 30  1  0
 13 31  1  0
 15 32  1  0
 15 33  1  0
 16 34  1  0
 16 35  1  0
 17 36  1  0
 17 37  1  0
 18 38  1  0
 18 39  1  0
 19 40  1  0
 19 41  1  0
M  END
>  <Energy>  (405) 
234.17623667107324

>  <compound_id>  (405) 
38626

>  <target_id>  (405) 
1

>  <reference_id>  (405) 
44

>  <inspiration_ids>  (405) 
[44, 101]

>  <energy_score>  (405) 
153.48920972192582

>  <distance_score>  (405) 
10.666398378647976

>  <path>  (405) 
/opt/xchem-fragalysis-2/maxwin/BulkDock/SCRATCH/511020/C38626-P44/C38626-P44.minimised.mol

>  <scratch_subdir>  (405) 
/opt/xchem-fragalysis-2/maxwin/BulkDock/SCRATCH/511020/C38626-P44

>  <fragmenstein_runtime>  (405) 
34.041276693344116

>  <fragmenstein_outcome>  (405) 
too moved

>  <fragmenstein_mode>  (405) 
expansion

>  <fragmenstein_error>  (405) 


$$$$
C38626-P101
     RDKit          3D

 41 42  0  0  0  0  0  0  0  0999 V2000
   -6.5747   -9.2619   31.5146 O   0  0  0  0  0  0  0  0  0  0  0  0
   -7.4895   -8.8771   30.8351 C   0  0  0  0  0  0  0  0  0  0  0  0
   -8.9453   -8.9451   31.3928 C   0  0  0  0  0  0  0  0  0  0  0  0
   -9.2230  -10.0357   32.4167 C   0  0  0  0  0  0  0  0  0  0  0  0
  -10.4143  -10.5344   32.7233 N   0  0  0  0  0  0  0  0  0  0  0  0
  -10.2029  -11.5029   33.6769 C   0  0  0  0  0  0  0  0  0  0  0  0
   -8.8665  -11.5976   33.9748 C   0  0  0  0  0  0  0  0  0  0  0  0
   -8.2567  -10.6631   33.1754 N   0  0  0  0  0  0  0  0  0  0  0  0
   -7.4997   -8.2731   29.4993 N   0  0  0  0  0  0  0  0  0  0  0  0
   -6.3481   -8.0249   28.4791 C   0  0  0  0  0  0  0  0  0  0  0  0
   -6.9755   -6.9707   27.5244 C   0  0  0  0  0  0  0  0  0  0  0  0
   -7.0569   -5.6869   28.1227 O   0  0  0  0  0  0  0  0  0  0  0  0
   -4.8513   -7.6546   29.2440 C   0  0  0  0  0  0  0  0  0  0  0  0
   -2.9405   -7.2121   29.2938 N   0  0  0  0  0  0  0  0  0  0  0  0
   -2.0511   -7.1102   30.7133 C   0  0  0  0  0  0  0  0  0  0  0  0
   -0.5623   -6.7978   30.5197 C   0  0  0  0  0  0  0  0  0  0  0  0
    0.0383   -7.6724   29.4566 C   0  0  0  0  0  0  0  0  0  0  0  0
   -0.5246   -7.3219   28.0992 C   0  0  0  0  0  0  0  0  0  0  0  0
   -1.9695   -6.7756   28.1239 C   0  0  0  0  0  0  0  0  0  0  0  0
   -9.6468   -9.0870   30.5630 H   0  0  0  0  0  0  0  0  0  0  0  0
   -9.1601   -7.9739   31.8532 H   0  0  0  0  0  0  0  0  0  0  0  0
  -11.0246  -12.0691   34.0951 H   0  0  0  0  0  0  0  0  0  0  0  0
   -8.3124  -12.2229   34.6589 H   0  0  0  0  0  0  0  0  0  0  0  0
   -7.2648  -10.4670   33.0966 H   0  0  0  0  0  0  0  0  0  0  0  0
   -8.4471   -7.9955   29.2677 H   0  0  0  0  0  0  0  0  0  0  0  0
   -6.3299   -8.9184   27.8903 H   0  0  0  0  0  0  0  0  0  0  0  0
   -6.4348   -6.8989   26.5924 H   0  0  0  0  0  0  0  0  0  0  0  0
   -7.9955   -7.2667   27.2544 H   0  0  0  0  0  0  0  0  0  0  0  0
   -7.5008   -5.0924   27.4914 H   0  0  0  0  0  0  0  0  0  0  0  0
   -5.4407   -6.7883   29.4756 H   0  0  0  0  0  0  0  0  0  0  0  0
   -5.0391   -8.1433   30.2204 H   0  0  0  0  0  0  0  0  0  0  0  0
   -2.1670   -8.0184   31.3246 H   0  0  0  0  0  0  0  0  0  0  0  0
   -2.3530   -6.3202   31.3964 H   0  0  0  0  0  0  0  0  0  0  0  0
   -0.4132   -5.7391   30.2747 H   0  0  0  0  0  0  0  0  0  0  0  0
   -0.0433   -6.9710   31.4703 H   0  0  0  0  0  0  0  0  0  0  0  0
   -0.1707   -8.7256   29.6824 H   0  0  0  0  0  0  0  0  0  0  0  0
    1.1277   -7.5762   29.4569 H   0  0  0  0  0  0  0  0  0  0  0  0
    0.0839   -6.5329   27.6464 H   0  0  0  0  0  0  0  0  0  0  0  0
   -0.3907   -8.1800   27.4334 H   0  0  0  0  0  0  0  0  0  0  0  0
   -1.7308   -5.7089   28.1665 H   0  0  0  0  0  0  0  0  0  0  0  0
   -2.4184   -6.8958   27.1331 H   0  0  0  0  0  0  0  0  0  0  0  0
  1  2  2  0
  2  3  1  0
  3  4  1  0
  4  5  2  0
  5  6  1  0
  6  7  2  0
  7  8  1  0
  2  9  1  0
  9 10  1  0
 10 11  1  0
 11 12  1  0
 10 13  1  0
 13 14  1  0
 14 15  1  0
 15 16  1  0
 16 17  1  0
 17 18  1  0
 18 19  1  0
  8  4  1  0
 19 14  1  0
  3 20  1  0
  3 21  1  0
  6 22  1  0
  7 23  1  0
  8 24  1  0
  9 25  1  0
 10 26  1  0
 11 27  1  0
 11 28  1  0
 12 29  1  0
 13 30  1  0
 13 31  1  0
 15 32  1  0
 15 33  1  0
 16 34  1  0
 16 35  1  0
 17 36  1  0
 17 37  1  0
 18 38  1  0
 18 39  1  0
 19 40  1  0
 19 41  1  0
M  END
>  <Energy>  (406) 
240.55996383769488

>  <compound_id>  (406) 
38626

>  <target_id>  (406) 
1

>  <reference_id>  (406) 
101

>  <inspiration_ids>  (406) 
[44, 101]

>  <energy_score>  (406) 
159.87293688855004

>  <distance_score>  (406) 
12.31293303719334

>  <path>  (406) 
/opt/xchem-fragalysis-2/maxwin/BulkDock/SCRATCH/511020/C38626-P101/C38626-P101.minimised.mol

>  <scratch_subdir>  (406) 
/opt/xchem-fragalysis-2/maxwin/BulkDock/SCRATCH/511020/C38626-P101

>  <fragmenstein_runtime>  (406) 
33.98367524147034

>  <fragmenstein_outcome>  (406) 
too moved

>  <fragmenstein_mode>  (406) 
expansion

>  <fragmenstein_error>  (406) 


$$$$
C54385-P44
     RDKit          3D

 47 49  0  0  0  0  0  0  0  0999 V2000
   -8.2479   -4.8374   26.5169 C   0  0  0  0  0  0  0  0  0  0  0  0
   -6.9321   -5.7111   26.7871 C   0  0  0  0  0  0  0  0  0  0  0  0
   -6.6757   -7.7289   26.1026 C   0  0  0  0  0  0  0  0  0  0  0  0
   -7.4658   -9.4821   26.5926 C   0  0  0  0  0  0  0  0  0  0  0  0
   -8.2285   -9.3197   27.5406 O   0  0  0  0  0  0  0  0  0  0  0  0
   -7.0740  -11.2914   25.9470 N   0  0  0  0  0  0  0  0  0  0  0  0
   -7.5887  -13.0576   26.6624 C   0  0  0  0  0  0  0  0  0  0  0  0
   -9.0104  -13.7844   27.1590 C   0  0  0  0  0  0  0  0  0  0  0  0
   -9.8969  -15.3935   26.9800 C   0  0  0  0  0  0  0  0  0  0  0  0
   -9.4322  -16.7565   26.9771 C   0  0  0  0  0  0  0  0  0  0  0  0
   -9.5107  -18.3181   28.0787 C   0  0  0  0  0  0  0  0  0  0  0  0
   -9.3404  -19.9212   28.2429 C   0  0  0  0  0  0  0  0  0  0  0  0
  -10.6401  -20.8697   29.0080 N   0  0  0  0  0  0  0  0  0  0  0  0
  -11.4363  -19.9597   29.6749 C   0  0  0  0  0  0  0  0  0  0  0  0
  -10.9591  -18.4633   29.3186 N   0  0  0  0  0  0  0  0  0  0  0  0
   -8.3650  -15.9697   26.8085 C   0  0  0  0  0  0  0  0  0  0  0  0
   -7.7512  -14.4017   26.1080 C   0  0  0  0  0  0  0  0  0  0  0  0
   -6.1627   -4.5794   28.2623 C   0  0  0  0  0  0  0  0  0  0  0  0
   -4.9796   -3.5090   28.2076 C   0  0  0  0  0  0  0  0  0  0  0  0
   -3.5821   -3.4852   29.4726 C   0  0  0  0  0  0  0  0  0  0  0  0
   -3.8870   -3.7422   30.8546 N   0  0  0  0  0  0  0  0  0  0  0  0
   -5.2698   -3.6822   31.1347 C   0  0  0  0  0  0  0  0  0  0  0  0
   -6.2265   -4.2892   30.1046 C   0  0  0  0  0  0  0  0  0  0  0  0
   -8.4511   -4.7424   25.4575 H   0  0  0  0  0  0  0  0  0  0  0  0
   -9.1264   -5.1032   27.0993 H   0  0  0  0  0  0  0  0  0  0  0  0
   -8.0857   -3.7727   26.7238 H   0  0  0  0  0  0  0  0  0  0  0  0
   -6.5858   -5.3709   25.8915 H   0  0  0  0  0  0  0  0  0  0  0  0
   -5.7873   -8.2807   26.9686 H   0  0  0  0  0  0  0  0  0  0  0  0
   -6.4375   -7.5017   25.0427 H   0  0  0  0  0  0  0  0  0  0  0  0
   -6.5043  -11.2280   25.1210 H   0  0  0  0  0  0  0  0  0  0  0  0
   -9.8963  -13.1587   27.1648 H   0  0  0  0  0  0  0  0  0  0  0  0
  -10.9633  -15.2044   27.2025 H   0  0  0  0  0  0  0  0  0  0  0  0
   -8.6665  -20.7312   27.7847 H   0  0  0  0  0  0  0  0  0  0  0  0
  -10.8079  -21.8198   28.7084 H   0  0  0  0  0  0  0  0  0  0  0  0
  -12.4012  -20.2607   30.0636 H   0  0  0  0  0  0  0  0  0  0  0  0
   -7.9305  -16.1046   27.8517 H   0  0  0  0  0  0  0  0  0  0  0  0
   -7.5128  -14.6874   25.0923 H   0  0  0  0  0  0  0  0  0  0  0  0
   -7.0118   -3.8934   28.1447 H   0  0  0  0  0  0  0  0  0  0  0  0
   -4.5913   -3.0790   27.2732 H   0  0  0  0  0  0  0  0  0  0  0  0
   -5.6451   -2.7404   28.1201 H   0  0  0  0  0  0  0  0  0  0  0  0
   -2.9291   -2.5959   29.3481 H   0  0  0  0  0  0  0  0  0  0  0  0
   -2.7452   -4.1858   29.3181 H   0  0  0  0  0  0  0  0  0  0  0  0
   -3.4081   -4.5552   31.2317 H   0  0  0  0  0  0  0  0  0  0  0  0
   -5.5850   -2.6837   31.4373 H   0  0  0  0  0  0  0  0  0  0  0  0
   -5.4207   -4.2234   32.0818 H   0  0  0  0  0  0  0  0  0  0  0  0
   -6.4593   -5.2031   30.6508 H   0  0  0  0  0  0  0  0  0  0  0  0
   -7.0997   -3.6143   30.2127 H   0  0  0  0  0  0  0  0  0  0  0  0
  1  2  1  0
  2  3  1  0
  3  4  1  0
  4  5  2  0
  4  6  1  0
  6  7  1  0
  7  8  2  0
  8  9  1  0
  9 10  2  0
 10 11  1  0
 11 12  2  0
 12 13  1  0
 13 14  1  0
 14 15  2  0
 10 16  1  0
 16 17  2  0
  2 18  1  0
 18 19  1  0
 19 20  1  0
 20 21  1  0
 21 22  1  0
 22 23  1  0
 17  7  1  0
 23 18  1  0
 15 11  1  0
  1 24  1  0
  1 25  1  0
  1 26  1  0
  2 27  1  0
  3 28  1  0
  3 29  1  0
  6 30  1  0
  8 31  1  0
  9 32  1  0
 12 33  1  0
 13 34  1  0
 14 35  1  0
 16 36  1  0
 17 37  1  0
 18 38  1  0
 19 39  1  0
 19 40  1  0
 20 41  1  0
 20 42  1  0
 21 43  1  0
 22 44  1  0
 22 45  1  0
 23 46  1  0
 23 47  1  0
M  END
>  <Energy>  (407) 
1308.7796453497826

>  <compound_id>  (407) 
54385

>  <target_id>  (407) 
1

>  <reference_id>  (407) 
44

>  <inspiration_ids>  (407) 
[44, 101]

>  <energy_score>  (407) 
1252.8825710140748

>  <distance_score>  (407) 
7.876244782264695

>  <path>  (407) 
/opt/xchem-fragalysis-2/maxwin/BulkDock/SCRATCH/511020/C54385-P44/C54385-P44.minimised.mol

>  <scratch_subdir>  (407) 
/opt/xchem-fragalysis-2/maxwin/BulkDock/SCRATCH/511020/C54385-P44

>  <fragmenstein_runtime>  (407) 
22.333110332489014

>  <fragmenstein_outcome>  (407) 
too moved

>  <fragmenstein_mode>  (407) 
expansion

>  <fragmenstein_error>  (407) 


$$$$
C54385-P101
     RDKit          3D

 47 49  0  0  0  0  0  0  0  0999 V2000
   -6.2320   -6.1801   28.9841 C   0  0  0  0  0  0  0  0  0  0  0  0
   -5.2795   -7.9319   29.0411 C   0  0  0  0  0  0  0  0  0  0  0  0
   -6.1472   -9.3906   30.2580 C   0  0  0  0  0  0  0  0  0  0  0  0
   -5.8227  -11.2762   31.0920 C   0  0  0  0  0  0  0  0  0  0  0  0
   -4.7712  -11.8243   30.8125 O   0  0  0  0  0  0  0  0  0  0  0  0
   -7.2023  -11.9902   32.0320 N   0  0  0  0  0  0  0  0  0  0  0  0
   -7.5072  -13.7599   32.7133 C   0  0  0  0  0  0  0  0  0  0  0  0
   -8.5210  -14.6933   32.4042 C   0  0  0  0  0  0  0  0  0  0  0  0
   -8.7143  -16.1160   33.2603 C   0  0  0  0  0  0  0  0  0  0  0  0
   -7.9137  -16.7761   34.2671 C   0  0  0  0  0  0  0  0  0  0  0  0
   -7.3364  -18.1076   34.2666 C   0  0  0  0  0  0  0  0  0  0  0  0
   -6.3012  -18.3821   33.4104 C   0  0  0  0  0  0  0  0  0  0  0  0
   -5.8083  -19.5913   33.7800 N   0  0  0  0  0  0  0  0  0  0  0  0
   -6.3494  -19.8645   34.9961 C   0  0  0  0  0  0  0  0  0  0  0  0
   -7.1612  -18.8997   35.3724 N   0  0  0  0  0  0  0  0  0  0  0  0
   -7.0183  -15.9785   34.8457 C   0  0  0  0  0  0  0  0  0  0  0  0
   -6.8145  -14.8167   34.0833 C   0  0  0  0  0  0  0  0  0  0  0  0
   -3.3723   -7.2340   29.3949 C   0  0  0  0  0  0  0  0  0  0  0  0
   -2.7592   -7.3057   31.0238 C   0  0  0  0  0  0  0  0  0  0  0  0
   -1.2722   -7.5381   31.3267 C   0  0  0  0  0  0  0  0  0  0  0  0
   -0.3959   -6.7339   30.5094 N   0  0  0  0  0  0  0  0  0  0  0  0
   -0.4574   -7.2219   29.1465 C   0  0  0  0  0  0  0  0  0  0  0  0
   -1.7640   -6.7797   28.5192 C   0  0  0  0  0  0  0  0  0  0  0  0
   -6.4628   -5.6849   27.9899 H   0  0  0  0  0  0  0  0  0  0  0  0
   -6.6737   -6.0809   29.9854 H   0  0  0  0  0  0  0  0  0  0  0  0
   -5.8293   -5.1243   29.1336 H   0  0  0  0  0  0  0  0  0  0  0  0
   -5.3357   -8.2436   28.0061 H   0  0  0  0  0  0  0  0  0  0  0  0
   -5.7538   -8.8235   31.0806 H   0  0  0  0  0  0  0  0  0  0  0  0
   -7.0616   -9.5680   29.7111 H   0  0  0  0  0  0  0  0  0  0  0  0
   -7.9918  -11.3324   32.0440 H   0  0  0  0  0  0  0  0  0  0  0  0
   -9.4857  -14.3144   32.1081 H   0  0  0  0  0  0  0  0  0  0  0  0
   -9.7778  -16.3865   33.3290 H   0  0  0  0  0  0  0  0  0  0  0  0
   -5.9651  -17.7942   32.5830 H   0  0  0  0  0  0  0  0  0  0  0  0
   -5.1356  -20.1492   33.2767 H   0  0  0  0  0  0  0  0  0  0  0  0
   -6.1026  -20.7391   35.5798 H   0  0  0  0  0  0  0  0  0  0  0  0
   -6.2649  -16.3292   35.5476 H   0  0  0  0  0  0  0  0  0  0  0  0
   -5.7175  -14.7791   34.3011 H   0  0  0  0  0  0  0  0  0  0  0  0
   -3.3690   -7.3346   28.3118 H   0  0  0  0  0  0  0  0  0  0  0  0
   -2.9781   -6.3754   31.5645 H   0  0  0  0  0  0  0  0  0  0  0  0
   -3.3096   -8.0865   31.5722 H   0  0  0  0  0  0  0  0  0  0  0  0
   -1.0989   -7.2799   32.3790 H   0  0  0  0  0  0  0  0  0  0  0  0
   -1.0195   -8.6036   31.2501 H   0  0  0  0  0  0  0  0  0  0  0  0
    0.5639   -6.8300   30.8477 H   0  0  0  0  0  0  0  0  0  0  0  0
   -0.3224   -8.3078   29.0822 H   0  0  0  0  0  0  0  0  0  0  0  0
    0.3701   -6.7795   28.5787 H   0  0  0  0  0  0  0  0  0  0  0  0
   -1.6280   -5.6995   28.3639 H   0  0  0  0  0  0  0  0  0  0  0  0
   -1.7585   -7.0457   27.4544 H   0  0  0  0  0  0  0  0  0  0  0  0
  1  2  1  0
  2  3  1  0
  3  4  1  0
  4  5  2  0
  4  6  1  0
  6  7  1  0
  7  8  2  0
  8  9  1  0
  9 10  2  0
 10 11  1  0
 11 12  2  0
 12 13  1  0
 13 14  1  0
 14 15  2  0
 10 16  1  0
 16 17  2  0
  2 18  1  0
 18 19  1  0
 19 20  1  0
 20 21  1  0
 21 22  1  0
 22 23  1  0
 17  7  1  0
 23 18  1  0
 15 11  1  0
  1 24  1  0
  1 25  1  0
  1 26  1  0
  2 27  1  0
  3 28  1  0
  3 29  1  0
  6 30  1  0
  8 31  1  0
  9 32  1  0
 12 33  1  0
 13 34  1  0
 14 35  1  0
 16 36  1  0
 17 37  1  0
 18 38  1  0
 19 39  1  0
 19 40  1  0
 20 41  1  0
 20 42  1  0
 21 43  1  0
 22 44  1  0
 22 45  1  0
 23 46  1  0
 23 47  1  0
M  END
>  <Energy>  (408) 
818.99832627014496

>  <compound_id>  (408) 
54385

>  <target_id>  (408) 
1

>  <reference_id>  (408) 
101

>  <inspiration_ids>  (408) 
[44, 101]

>  <energy_score>  (408) 
763.1012519344314

>  <distance_score>  (408) 
10.280957952977545

>  <path>  (408) 
/opt/xchem-fragalysis-2/maxwin/BulkDock/SCRATCH/511020/C54385-P101/C54385-P101.minimised.mol

>  <scratch_subdir>  (408) 
/opt/xchem-fragalysis-2/maxwin/BulkDock/SCRATCH/511020/C54385-P101

>  <fragmenstein_runtime>  (408) 
25.207300424575806

>  <fragmenstein_outcome>  (408) 
too moved

>  <fragmenstein_mode>  (408) 
expansion

>  <fragmenstein_error>  (408) 


$$$$
C38627-P44
     RDKit          3D

 47 49  0  0  0  0  0  0  0  0999 V2000
   -3.1256   -2.0061   26.6657 C   0  0  0  0  0  0  0  0  0  0  0  0
   -3.1798   -1.3122   25.3383 C   0  0  0  0  0  0  0  0  0  0  0  0
   -2.9849   -2.4496   23.6710 C   0  0  0  0  0  0  0  0  0  0  0  0
   -3.4476   -3.5490   22.1233 C   0  0  0  0  0  0  0  0  0  0  0  0
   -2.5501   -4.3393   21.8987 O   0  0  0  0  0  0  0  0  0  0  0  0
   -4.9270   -3.4510   21.3782 N   0  0  0  0  0  0  0  0  0  0  0  0
   -5.6479   -4.4431   20.2388 C   0  0  0  0  0  0  0  0  0  0  0  0
   -6.9317   -5.1319   19.6790 C   0  0  0  0  0  0  0  0  0  0  0  0
   -8.1189   -6.3760   20.2327 C   0  0  0  0  0  0  0  0  0  0  0  0
   -8.0894   -6.9956   21.7157 C   0  0  0  0  0  0  0  0  0  0  0  0
   -9.1848   -8.2381   22.8435 C   0  0  0  0  0  0  0  0  0  0  0  0
  -10.6017   -8.4803   23.0780 N   0  0  0  0  0  0  0  0  0  0  0  0
  -10.9535  -10.0576   23.5798 C   0  0  0  0  0  0  0  0  0  0  0  0
   -9.7979  -10.6622   23.3563 C   0  0  0  0  0  0  0  0  0  0  0  0
   -8.8767   -9.6634   23.1053 N   0  0  0  0  0  0  0  0  0  0  0  0
   -7.0431   -6.0858   22.1472 C   0  0  0  0  0  0  0  0  0  0  0  0
   -6.1811   -4.9702   21.3768 C   0  0  0  0  0  0  0  0  0  0  0  0
   -2.7046    0.3806   26.0896 C   0  0  0  0  0  0  0  0  0  0  0  0
   -2.8329    1.8090   25.5092 C   0  0  0  0  0  0  0  0  0  0  0  0
   -2.5399    2.9339   26.5324 C   0  0  0  0  0  0  0  0  0  0  0  0
   -1.4996    2.6751   27.5181 N   0  0  0  0  0  0  0  0  0  0  0  0
   -0.6039    1.6247   27.1024 C   0  0  0  0  0  0  0  0  0  0  0  0
   -1.3889    0.3208   26.9982 C   0  0  0  0  0  0  0  0  0  0  0  0
   -3.1623   -1.3759   27.5573 H   0  0  0  0  0  0  0  0  0  0  0  0
   -4.0474   -2.5560   26.7850 H   0  0  0  0  0  0  0  0  0  0  0  0
   -2.1513   -2.4334   26.8502 H   0  0  0  0  0  0  0  0  0  0  0  0
   -2.2069   -1.0214   25.2182 H   0  0  0  0  0  0  0  0  0  0  0  0
   -2.8218   -3.3630   24.2461 H   0  0  0  0  0  0  0  0  0  0  0  0
   -2.0366   -2.1625   23.1945 H   0  0  0  0  0  0  0  0  0  0  0  0
   -5.4164   -2.6518   21.7193 H   0  0  0  0  0  0  0  0  0  0  0  0
   -7.0353   -5.0310   18.5823 H   0  0  0  0  0  0  0  0  0  0  0  0
   -8.8452   -6.7078   19.4875 H   0  0  0  0  0  0  0  0  0  0  0  0
  -11.3410  -10.2455   24.5736 H   0  0  0  0  0  0  0  0  0  0  0  0
   -9.5153  -11.4752   22.7662 H   0  0  0  0  0  0  0  0  0  0  0  0
   -7.9634  -10.0195   22.9817 H   0  0  0  0  0  0  0  0  0  0  0  0
   -7.2172   -5.4987   23.0327 H   0  0  0  0  0  0  0  0  0  0  0  0
   -6.6801   -4.0635   21.8172 H   0  0  0  0  0  0  0  0  0  0  0  0
   -3.4226    0.5302   26.8859 H   0  0  0  0  0  0  0  0  0  0  0  0
   -2.1820    1.9753   24.6499 H   0  0  0  0  0  0  0  0  0  0  0  0
   -3.8719    2.0021   25.2460 H   0  0  0  0  0  0  0  0  0  0  0  0
   -3.4588    3.1558   27.0795 H   0  0  0  0  0  0  0  0  0  0  0  0
   -2.2934    3.8447   25.9728 H   0  0  0  0  0  0  0  0  0  0  0  0
   -1.0065    3.5410   27.7317 H   0  0  0  0  0  0  0  0  0  0  0  0
    0.1857    1.5042   27.8525 H   0  0  0  0  0  0  0  0  0  0  0  0
   -0.1086    1.8871   26.1637 H   0  0  0  0  0  0  0  0  0  0  0  0
   -1.6904    0.0454   28.0195 H   0  0  0  0  0  0  0  0  0  0  0  0
   -0.7011   -0.4636   26.7017 H   0  0  0  0  0  0  0  0  0  0  0  0
  1  2  1  0
  2  3  1  0
  3  4  1  0
  4  5  2  0
  4  6  1  0
  6  7  1  0
  7  8  2  0
  8  9  1  0
  9 10  2  0
 10 11  1  0
 11 12  2  0
 12 13  1  0
 13 14  2  0
 14 15  1  0
 10 16  1  0
 16 17  2  0
  2 18  1  0
 18 19  1  0
 19 20  1  0
 20 21  1  0
 21 22  1  0
 22 23  1  0
 17  7  1  0
 23 18  1  0
 15 11  1  0
  1 24  1  0
  1 25  1  0
  1 26  1  0
  2 27  1  0
  3 28  1  0
  3 29  1  0
  6 30  1  0
  8 31  1  0
  9 32  1  0
 13 33  1  0
 14 34  1  0
 15 35  1  0
 16 36  1  0
 17 37  1  0
 18 38  1  0
 19 39  1  0
 19 40  1  0
 20 41  1  0
 20 42  1  0
 21 43  1  0
 22 44  1  0
 22 45  1  0
 23 46  1  0
 23 47  1  0
M  END
>  <Energy>  (409) 
837.78955219298518

>  <compound_id>  (409) 
38627

>  <target_id>  (409) 
1

>  <reference_id>  (409) 
44

>  <inspiration_ids>  (409) 
[44, 101]

>  <energy_score>  (409) 
778.0782362869888

>  <distance_score>  (409) 
11.101410213332679

>  <path>  (409) 
/opt/xchem-fragalysis-2/maxwin/BulkDock/SCRATCH/511020/C38627-P44/C38627-P44.minimised.mol

>  <scratch_subdir>  (409) 
/opt/xchem-fragalysis-2/maxwin/BulkDock/SCRATCH/511020/C38627-P44

>  <fragmenstein_runtime>  (409) 
25.924155950546265

>  <fragmenstein_outcome>  (409) 
too moved

>  <fragmenstein_mode>  (409) 
expansion

>  <fragmenstein_error>  (409) 


$$$$
C38627-P101
     RDKit          3D

 47 49  0  0  0  0  0  0  0  0999 V2000
   -5.2946   -3.0700   28.2845 C   0  0  0  0  0  0  0  0  0  0  0  0
   -6.2604   -4.0190   28.8525 C   0  0  0  0  0  0  0  0  0  0  0  0
   -6.6553   -5.5838   27.7856 C   0  0  0  0  0  0  0  0  0  0  0  0
   -7.0134   -6.8096   26.1179 C   0  0  0  0  0  0  0  0  0  0  0  0
   -6.9758   -6.4225   24.9262 O   0  0  0  0  0  0  0  0  0  0  0  0
   -7.2819   -8.7419   26.7069 N   0  0  0  0  0  0  0  0  0  0  0  0
   -7.4034  -10.3480   25.7311 C   0  0  0  0  0  0  0  0  0  0  0  0
   -6.7369  -11.5729   25.7878 C   0  0  0  0  0  0  0  0  0  0  0  0
   -6.9390  -13.0524   26.6075 C   0  0  0  0  0  0  0  0  0  0  0  0
   -7.9464  -13.6403   27.3384 C   0  0  0  0  0  0  0  0  0  0  0  0
   -8.3801  -14.9876   27.3161 C   0  0  0  0  0  0  0  0  0  0  0  0
   -7.8791  -16.0309   27.9303 N   0  0  0  0  0  0  0  0  0  0  0  0
   -8.5158  -17.0552   27.3843 C   0  0  0  0  0  0  0  0  0  0  0  0
   -9.4094  -16.6594   26.4407 C   0  0  0  0  0  0  0  0  0  0  0  0
   -9.5508  -15.4172   26.8010 N   0  0  0  0  0  0  0  0  0  0  0  0
   -8.8895  -12.8204   26.9710 C   0  0  0  0  0  0  0  0  0  0  0  0
   -8.5382  -11.3033   26.0922 C   0  0  0  0  0  0  0  0  0  0  0  0
   -6.1649   -3.6934   30.6449 C   0  0  0  0  0  0  0  0  0  0  0  0
   -4.8650   -3.1120   31.3435 C   0  0  0  0  0  0  0  0  0  0  0  0
   -5.1910   -2.2661   32.5791 C   0  0  0  0  0  0  0  0  0  0  0  0
   -5.9327   -3.0055   33.5863 N   0  0  0  0  0  0  0  0  0  0  0  0
   -6.1579   -4.3870   33.1990 C   0  0  0  0  0  0  0  0  0  0  0  0
   -6.7890   -4.5200   31.7979 C   0  0  0  0  0  0  0  0  0  0  0  0
   -4.4175   -2.7308   28.7959 H   0  0  0  0  0  0  0  0  0  0  0  0
   -6.0722   -2.3783   28.4229 H   0  0  0  0  0  0  0  0  0  0  0  0
   -5.0294   -2.9851   27.2427 H   0  0  0  0  0  0  0  0  0  0  0  0
   -7.2621   -3.5350   28.6667 H   0  0  0  0  0  0  0  0  0  0  0  0
   -6.3415   -6.1446   28.7055 H   0  0  0  0  0  0  0  0  0  0  0  0
   -5.7454   -5.5477   27.3145 H   0  0  0  0  0  0  0  0  0  0  0  0
   -7.1885   -8.8151   27.7159 H   0  0  0  0  0  0  0  0  0  0  0  0
   -6.2560  -11.8111   24.8088 H   0  0  0  0  0  0  0  0  0  0  0  0
   -6.7089  -13.8331   25.9256 H   0  0  0  0  0  0  0  0  0  0  0  0
   -8.3446  -18.0228   27.8083 H   0  0  0  0  0  0  0  0  0  0  0  0
  -10.0689  -17.0895   25.7327 H   0  0  0  0  0  0  0  0  0  0  0  0
  -10.4511  -15.0206   27.0406 H   0  0  0  0  0  0  0  0  0  0  0  0
   -9.9601  -13.0795   26.9239 H   0  0  0  0  0  0  0  0  0  0  0  0
   -9.5171  -11.2281   25.5217 H   0  0  0  0  0  0  0  0  0  0  0  0
   -6.8465   -2.8267   30.6443 H   0  0  0  0  0  0  0  0  0  0  0  0
   -4.2063   -2.5190   30.7366 H   0  0  0  0  0  0  0  0  0  0  0  0
   -4.2196   -3.9300   31.6868 H   0  0  0  0  0  0  0  0  0  0  0  0
   -4.2595   -1.9016   33.0263 H   0  0  0  0  0  0  0  0  0  0  0  0
   -5.7760   -1.3850   32.3036 H   0  0  0  0  0  0  0  0  0  0  0  0
   -6.8284   -2.5472   33.7579 H   0  0  0  0  0  0  0  0  0  0  0  0
   -6.8270   -4.8525   33.9331 H   0  0  0  0  0  0  0  0  0  0  0  0
   -5.2246   -4.9602   33.2620 H   0  0  0  0  0  0  0  0  0  0  0  0
   -7.8143   -4.1579   31.9515 H   0  0  0  0  0  0  0  0  0  0  0  0
   -6.7862   -5.5835   31.5832 H   0  0  0  0  0  0  0  0  0  0  0  0
  1  2  1  0
  2  3  1  0
  3  4  1  0
  4  5  2  0
  4  6  1  0
  6  7  1  0
  7  8  2  0
  8  9  1  0
  9 10  2  0
 10 11  1  0
 11 12  2  0
 12 13  1  0
 13 14  2  0
 14 15  1  0
 10 16  1  0
 16 17  2  0
  2 18  1  0
 18 19  1  0
 19 20  1  0
 20 21  1  0
 21 22  1  0
 22 23  1  0
 17  7  1  0
 23 18  1  0
 15 11  1  0
  1 24  1  0
  1 25  1  0
  1 26  1  0
  2 27  1  0
  3 28  1  0
  3 29  1  0
  6 30  1  0
  8 31  1  0
  9 32  1  0
 13 33  1  0
 14 34  1  0
 15 35  1  0
 16 36  1  0
 17 37  1  0
 18 38  1  0
 19 39  1  0
 19 40  1  0
 20 41  1  0
 20 42  1  0
 21 43  1  0
 22 44  1  0
 22 45  1  0
 23 46  1  0
 23 47  1  0
M  END
>  <Energy>  (410) 
732.86253404374918

>  <compound_id>  (410) 
38627

>  <target_id>  (410) 
1

>  <reference_id>  (410) 
101

>  <inspiration_ids>  (410) 
[44, 101]

>  <energy_score>  (410) 
673.1512181377378

>  <distance_score>  (410) 
9.370213677714041

>  <path>  (410) 
/opt/xchem-fragalysis-2/maxwin/BulkDock/SCRATCH/511020/C38627-P101/C38627-P101.minimised.mol

>  <scratch_subdir>  (410) 
/opt/xchem-fragalysis-2/maxwin/BulkDock/SCRATCH/511020/C38627-P101

>  <fragmenstein_runtime>  (410) 
30.227563858032227

>  <fragmenstein_outcome>  (410) 
too moved

>  <fragmenstein_mode>  (410) 
expansion

>  <fragmenstein_error>  (410) 


$$$$
C38628-P44
     RDKit          3D

 47 49  0  0  0  0  0  0  0  0999 V2000
   -3.1786  -13.4239   23.4982 C   0  0  0  0  0  0  0  0  0  0  0  0
   -3.9917  -12.3708   24.7665 C   0  0  0  0  0  0  0  0  0  0  0  0
   -6.1330  -12.4391   25.1851 C   0  0  0  0  0  0  0  0  0  0  0  0
   -7.3020  -14.1366   25.6591 C   0  0  0  0  0  0  0  0  0  0  0  0
   -7.3245  -14.8462   24.7316 O   0  0  0  0  0  0  0  0  0  0  0  0
   -8.2012  -14.9266   27.0669 N   0  0  0  0  0  0  0  0  0  0  0  0
   -9.4860  -14.5686   27.0449 C   0  0  0  0  0  0  0  0  0  0  0  0
  -10.8383  -15.1332   27.1219 C   0  0  0  0  0  0  0  0  0  0  0  0
  -10.2666  -16.4302   26.7325 C   0  0  0  0  0  0  0  0  0  0  0  0
   -8.9850  -16.6979   27.2811 C   0  0  0  0  0  0  0  0  0  0  0  0
   -9.4065  -18.4588   28.1698 C   0  0  0  0  0  0  0  0  0  0  0  0
  -10.7457  -18.6435   29.3218 N   0  0  0  0  0  0  0  0  0  0  0  0
  -11.2095  -20.4486   29.5713 C   0  0  0  0  0  0  0  0  0  0  0  0
  -10.6611  -21.2860   28.6852 C   0  0  0  0  0  0  0  0  0  0  0  0
   -9.5723  -20.3124   27.9642 N   0  0  0  0  0  0  0  0  0  0  0  0
   -2.5487  -12.2364   25.8475 C   0  0  0  0  0  0  0  0  0  0  0  0
   -1.6487  -13.4140   26.2642 C   0  0  0  0  0  0  0  0  0  0  0  0
   -0.6343  -12.9581   27.3515 C   0  0  0  0  0  0  0  0  0  0  0  0
   -0.3721  -11.5152   27.4350 N   0  0  0  0  0  0  0  0  0  0  0  0
   -0.2547  -10.9193   26.1124 C   0  0  0  0  0  0  0  0  0  0  0  0
   -1.3947  -11.3177   25.1605 C   0  0  0  0  0  0  0  0  0  0  0  0
   -2.5935  -12.7823   22.8272 H   0  0  0  0  0  0  0  0  0  0  0  0
   -3.9132  -14.0331   22.9575 H   0  0  0  0  0  0  0  0  0  0  0  0
   -2.4530  -14.1174   23.9353 H   0  0  0  0  0  0  0  0  0  0  0  0
   -3.6770  -11.4412   24.2522 H   0  0  0  0  0  0  0  0  0  0  0  0
   -6.3947  -11.7708   26.0032 H   0  0  0  0  0  0  0  0  0  0  0  0
   -6.4496  -11.9022   24.2811 H   0  0  0  0  0  0  0  0  0  0  0  0
   -9.5064  -13.5137   27.2242 H   0  0  0  0  0  0  0  0  0  0  0  0
   -9.2227  -14.8481   26.0276 H   0  0  0  0  0  0  0  0  0  0  0  0
  -11.3684  -14.9106   28.0421 H   0  0  0  0  0  0  0  0  0  0  0  0
  -11.6242  -14.7972   26.4469 H   0  0  0  0  0  0  0  0  0  0  0  0
  -10.8813  -17.1459   27.1710 H   0  0  0  0  0  0  0  0  0  0  0  0
  -10.1333  -16.5625   25.6609 H   0  0  0  0  0  0  0  0  0  0  0  0
   -8.3540  -16.6591   28.1543 H   0  0  0  0  0  0  0  0  0  0  0  0
  -12.0765  -20.7369   30.1728 H   0  0  0  0  0  0  0  0  0  0  0  0
  -10.7495  -22.2925   28.3006 H   0  0  0  0  0  0  0  0  0  0  0  0
  -10.0269  -20.4199   27.1032 H   0  0  0  0  0  0  0  0  0  0  0  0
   -2.9075  -11.8488   26.7895 H   0  0  0  0  0  0  0  0  0  0  0  0
   -2.1900  -14.2794   26.6303 H   0  0  0  0  0  0  0  0  0  0  0  0
   -1.0631  -13.7888   25.4160 H   0  0  0  0  0  0  0  0  0  0  0  0
   -0.9997  -13.2852   28.3325 H   0  0  0  0  0  0  0  0  0  0  0  0
    0.3132  -13.4879   27.1955 H   0  0  0  0  0  0  0  0  0  0  0  0
   -1.1567  -11.0958   27.9290 H   0  0  0  0  0  0  0  0  0  0  0  0
    0.7067  -11.2048   25.6679 H   0  0  0  0  0  0  0  0  0  0  0  0
   -0.2194   -9.8293   26.2140 H   0  0  0  0  0  0  0  0  0  0  0  0
   -1.7144  -10.4183   24.6313 H   0  0  0  0  0  0  0  0  0  0  0  0
   -0.9497  -11.9125   24.3491 H   0  0  0  0  0  0  0  0  0  0  0  0
  1  2  1  0
  2  3  1  0
  3  4  1  0
  4  5  2  0
  4  6  1  0
  6  7  1  0
  7  8  1  0
  8  9  1  0
  9 10  1  0
 10 11  1  0
 11 12  2  0
 12 13  1  0
 13 14  2  0
 14 15  1  0
  2 16  1  0
 16 17  1  0
 17 18  1  0
 18 19  1  0
 19 20  1  0
 20 21  1  0
 10  6  1  0
 15 11  1  0
 21 16  1  0
  1 22  1  0
  1 23  1  0
  1 24  1  0
  2 25  1  0
  3 26  1  0
  3 27  1  0
  7 28  1  0
  7 29  1  0
  8 30  1  0
  8 31  1  0
  9 32  1  0
  9 33  1  0
 10 34  1  0
 13 35  1  0
 14 36  1  0
 15 37  1  0
 16 38  1  0
 17 39  1  0
 17 40  1  0
 18 41  1  0
 18 42  1  0
 19 43  1  0
 20 44  1  0
 20 45  1  0
 21 46  1  0
 21 47  1  0
M  END
>  <Energy>  (411) 
1017.9074664491793

>  <compound_id>  (411) 
38628

>  <target_id>  (411) 
1

>  <reference_id>  (411) 
44

>  <inspiration_ids>  (411) 
[44, 101]

>  <energy_score>  (411) 
952.7020839980983

>  <distance_score>  (411) 
11.663713761678826

>  <path>  (411) 
/opt/xchem-fragalysis-2/maxwin/BulkDock/SCRATCH/511020/C38628-P44/C38628-P44.minimised.mol

>  <scratch_subdir>  (411) 
/opt/xchem-fragalysis-2/maxwin/BulkDock/SCRATCH/511020/C38628-P44

>  <fragmenstein_runtime>  (411) 
21.91146969795227

>  <fragmenstein_outcome>  (411) 
too moved

>  <fragmenstein_mode>  (411) 
expansion

>  <fragmenstein_error>  (411) 


$$$$
C38628-P101
     RDKit          3D

 47 49  0  0  0  0  0  0  0  0999 V2000
   -6.9075   -6.2721   24.1521 C   0  0  0  0  0  0  0  0  0  0  0  0
   -6.6642   -6.9952   25.8814 C   0  0  0  0  0  0  0  0  0  0  0  0
   -7.3418   -9.0924   26.4535 C   0  0  0  0  0  0  0  0  0  0  0  0
   -7.8794  -11.1573   26.0154 C   0  0  0  0  0  0  0  0  0  0  0  0
   -9.0220  -11.1999   25.6636 O   0  0  0  0  0  0  0  0  0  0  0  0
   -7.1856  -12.9631   26.1746 N   0  0  0  0  0  0  0  0  0  0  0  0
   -7.3761  -13.4680   27.4916 C   0  0  0  0  0  0  0  0  0  0  0  0
   -8.7125  -13.9250   27.7260 C   0  0  0  0  0  0  0  0  0  0  0  0
   -8.6239  -15.1963   27.0346 C   0  0  0  0  0  0  0  0  0  0  0  0
   -8.0048  -14.8308   25.7123 C   0  0  0  0  0  0  0  0  0  0  0  0
   -9.2981  -16.3815   25.3326 C   0  0  0  0  0  0  0  0  0  0  0  0
  -10.1982  -17.7062   24.7991 N   0  0  0  0  0  0  0  0  0  0  0  0
   -9.8473  -19.2933   23.6930 C   0  0  0  0  0  0  0  0  0  0  0  0
   -9.3514  -18.6315   22.7943 C   0  0  0  0  0  0  0  0  0  0  0  0
  -10.1196  -17.2906   24.0442 N   0  0  0  0  0  0  0  0  0  0  0  0
   -7.5468   -5.1355   26.1171 C   0  0  0  0  0  0  0  0  0  0  0  0
   -8.8982   -4.6526   26.9720 C   0  0  0  0  0  0  0  0  0  0  0  0
   -8.9831   -3.2324   27.5677 C   0  0  0  0  0  0  0  0  0  0  0  0
   -7.7421   -2.5404   27.4018 N   0  0  0  0  0  0  0  0  0  0  0  0
   -7.4970   -2.3731   25.9864 C   0  0  0  0  0  0  0  0  0  0  0  0
   -7.6636   -3.6365   25.1821 C   0  0  0  0  0  0  0  0  0  0  0  0
   -6.0182   -6.2183   23.4898 H   0  0  0  0  0  0  0  0  0  0  0  0
   -7.2934   -5.2882   23.8919 H   0  0  0  0  0  0  0  0  0  0  0  0
   -7.8262   -6.5859   23.6992 H   0  0  0  0  0  0  0  0  0  0  0  0
   -7.5237   -6.5645   26.3731 H   0  0  0  0  0  0  0  0  0  0  0  0
   -6.5348   -9.2526   27.2211 H   0  0  0  0  0  0  0  0  0  0  0  0
   -8.0504   -9.1144   27.2877 H   0  0  0  0  0  0  0  0  0  0  0  0
   -6.7694  -14.2235   27.9548 H   0  0  0  0  0  0  0  0  0  0  0  0
   -6.8226  -12.8293   28.1319 H   0  0  0  0  0  0  0  0  0  0  0  0
   -8.8526  -13.9769   28.7910 H   0  0  0  0  0  0  0  0  0  0  0  0
   -9.5479  -13.4065   27.2712 H   0  0  0  0  0  0  0  0  0  0  0  0
   -8.1353  -16.0238   27.5682 H   0  0  0  0  0  0  0  0  0  0  0  0
   -9.6882  -15.4686   26.9757 H   0  0  0  0  0  0  0  0  0  0  0  0
   -7.2982  -15.1185   25.0108 H   0  0  0  0  0  0  0  0  0  0  0  0
  -10.5381  -20.1622   23.7050 H   0  0  0  0  0  0  0  0  0  0  0  0
   -8.3434  -18.3272   22.4360 H   0  0  0  0  0  0  0  0  0  0  0  0
  -10.6537  -16.6606   23.4868 H   0  0  0  0  0  0  0  0  0  0  0  0
   -8.2677   -5.4446   25.3858 H   0  0  0  0  0  0  0  0  0  0  0  0
   -9.6922   -4.5453   26.2105 H   0  0  0  0  0  0  0  0  0  0  0  0
   -9.4348   -5.3911   27.5271 H   0  0  0  0  0  0  0  0  0  0  0  0
   -9.8029   -2.6749   27.0910 H   0  0  0  0  0  0  0  0  0  0  0  0
   -9.2351   -3.2037   28.6272 H   0  0  0  0  0  0  0  0  0  0  0  0
   -7.8329   -1.6168   27.8281 H   0  0  0  0  0  0  0  0  0  0  0  0
   -6.4762   -2.0794   25.8390 H   0  0  0  0  0  0  0  0  0  0  0  0
   -8.1225   -1.5729   25.5718 H   0  0  0  0  0  0  0  0  0  0  0  0
   -7.1154   -3.5106   24.2429 H   0  0  0  0  0  0  0  0  0  0  0  0
   -8.6914   -3.6044   24.7744 H   0  0  0  0  0  0  0  0  0  0  0  0
  1  2  1  0
  2  3  1  0
  3  4  1  0
  4  5  2  0
  4  6  1  0
  6  7  1  0
  7  8  1  0
  8  9  1  0
  9 10  1  0
 10 11  1  0
 11 12  2  0
 12 13  1  0
 13 14  2  0
 14 15  1  0
  2 16  1  0
 16 17  1  0
 17 18  1  0
 18 19  1  0
 19 20  1  0
 20 21  1  0
 10  6  1  0
 15 11  1  0
 21 16  1  0
  1 22  1  0
  1 23  1  0
  1 24  1  0
  2 25  1  0
  3 26  1  0
  3 27  1  0
  7 28  1  0
  7 29  1  0
  8 30  1  0
  8 31  1  0
  9 32  1  0
  9 33  1  0
 10 34  1  0
 13 35  1  0
 14 36  1  0
 15 37  1  0
 16 38  1  0
 17 39  1  0
 17 40  1  0
 18 41  1  0
 18 42  1  0
 19 43  1  0
 20 44  1  0
 20 45  1  0
 21 46  1  0
 21 47  1  0
M  END
>  <Energy>  (412) 
1833.9968469691539

>  <compound_id>  (412) 
38628

>  <target_id>  (412) 
1

>  <reference_id>  (412) 
101

>  <inspiration_ids>  (412) 
[44, 101]

>  <energy_score>  (412) 
1768.791464518064

>  <distance_score>  (412) 
9.08947897986932

>  <path>  (412) 
/opt/xchem-fragalysis-2/maxwin/BulkDock/SCRATCH/511020/C38628-P101/C38628-P101.minimised.mol

>  <scratch_subdir>  (412) 
/opt/xchem-fragalysis-2/maxwin/BulkDock/SCRATCH/511020/C38628-P101

>  <fragmenstein_runtime>  (412) 
18.825897693634033

>  <fragmenstein_outcome>  (412) 
too moved

>  <fragmenstein_mode>  (412) 
expansion

>  <fragmenstein_error>  (412) 


$$$$
C38630-P44
     RDKit          3D

 52 53  0  0  0  0  0  0  0  0999 V2000
    2.2942   -9.6748   33.4978 C   0  0  0  0  0  0  0  0  0  0  0  0
    1.3301  -10.5736   34.2580 C   0  0  0  0  0  0  0  0  0  0  0  0
    0.0185   -9.9166   34.7406 C   0  0  0  0  0  0  0  0  0  0  0  0
    0.2817   -8.8316   35.7913 C   0  0  0  0  0  0  0  0  0  0  0  0
   -0.8854   -9.4498   33.5777 C   0  0  0  0  0  0  0  0  0  0  0  0
   -0.4780   -8.2175   32.9339 N   0  0  0  0  0  0  0  0  0  0  0  0
   -0.7543   -7.7069   31.6308 C   0  0  0  0  0  0  0  0  0  0  0  0
   -0.1698   -6.3141   31.5071 C   0  0  0  0  0  0  0  0  0  0  0  0
   -1.3285   -8.1995   30.7039 O   0  0  0  0  0  0  0  0  0  0  0  0
   -2.3610   -9.2640   34.0495 C   0  0  0  0  0  0  0  0  0  0  0  0
   -2.7620   -8.1872   34.4103 O   0  0  0  0  0  0  0  0  0  0  0  0
   -3.0172  -10.5366   34.0110 N   0  0  0  0  0  0  0  0  0  0  0  0
   -3.6939  -10.7350   32.6613 C   0  0  0  0  0  0  0  0  0  0  0  0
   -3.8468  -12.1873   32.1834 C   0  0  0  0  0  0  0  0  0  0  0  0
   -4.9003  -12.8879   33.0272 C   0  0  0  0  0  0  0  0  0  0  0  0
   -4.9254  -14.3360   32.8793 N   0  0  0  0  0  0  0  0  0  0  0  0
   -5.7319  -15.3336   33.5224 C   0  0  0  0  0  0  0  0  0  0  0  0
   -6.5362  -15.2383   34.4029 O   0  0  0  0  0  0  0  0  0  0  0  0
   -5.4976  -16.6623   32.9293 C   0  0  0  0  0  0  0  0  0  0  0  0
   -4.6854  -16.9177   31.9137 N   0  0  0  0  0  0  0  0  0  0  0  0
   -4.8140  -18.2642   31.6641 C   0  0  0  0  0  0  0  0  0  0  0  0
   -5.7254  -18.8369   32.5143 C   0  0  0  0  0  0  0  0  0  0  0  0
   -6.1706  -17.8102   33.2981 N   0  0  0  0  0  0  0  0  0  0  0  0
   -4.6577  -12.4504   34.4609 C   0  0  0  0  0  0  0  0  0  0  0  0
   -4.3690  -10.9563   34.5099 C   0  0  0  0  0  0  0  0  0  0  0  0
    2.5628   -8.7853   34.0738 H   0  0  0  0  0  0  0  0  0  0  0  0
    3.2189  -10.2220   33.2856 H   0  0  0  0  0  0  0  0  0  0  0  0
    1.8791   -9.3606   32.5367 H   0  0  0  0  0  0  0  0  0  0  0  0
    1.8572  -10.9816   35.1300 H   0  0  0  0  0  0  0  0  0  0  0  0
    1.0841  -11.4344   33.6234 H   0  0  0  0  0  0  0  0  0  0  0  0
   -0.5250  -10.7147   35.2670 H   0  0  0  0  0  0  0  0  0  0  0  0
   -0.6568   -8.4495   36.2051 H   0  0  0  0  0  0  0  0  0  0  0  0
    0.8615   -9.2417   36.6255 H   0  0  0  0  0  0  0  0  0  0  0  0
    0.8413   -7.9833   35.3880 H   0  0  0  0  0  0  0  0  0  0  0  0
   -0.8822  -10.2137   32.7904 H   0  0  0  0  0  0  0  0  0  0  0  0
   -0.0421   -7.4891   33.4878 H   0  0  0  0  0  0  0  0  0  0  0  0
   -0.2477   -5.9737   30.4708 H   0  0  0  0  0  0  0  0  0  0  0  0
    0.8876   -6.3192   31.7870 H   0  0  0  0  0  0  0  0  0  0  0  0
   -0.7253   -5.6238   32.1480 H   0  0  0  0  0  0  0  0  0  0  0  0
   -2.9735  -10.3107   31.9466 H   0  0  0  0  0  0  0  0  0  0  0  0
   -4.5685  -10.0891   32.4745 H   0  0  0  0  0  0  0  0  0  0  0  0
   -2.8823  -12.7042   32.2702 H   0  0  0  0  0  0  0  0  0  0  0  0
   -4.1307  -12.2214   31.1258 H   0  0  0  0  0  0  0  0  0  0  0  0
   -5.8946  -12.5369   32.7223 H   0  0  0  0  0  0  0  0  0  0  0  0
   -4.4122  -14.7696   32.1099 H   0  0  0  0  0  0  0  0  0  0  0  0
   -4.2297  -18.7400   30.8887 H   0  0  0  0  0  0  0  0  0  0  0  0
   -6.1011  -19.8408   32.6345 H   0  0  0  0  0  0  0  0  0  0  0  0
   -6.8787  -17.8530   34.0196 H   0  0  0  0  0  0  0  0  0  0  0  0
   -5.5332  -12.6817   35.0789 H   0  0  0  0  0  0  0  0  0  0  0  0
   -3.8136  -13.0050   34.8919 H   0  0  0  0  0  0  0  0  0  0  0  0
   -4.2755  -10.7297   35.5844 H   0  0  0  0  0  0  0  0  0  0  0  0
   -5.2158  -10.2990   34.2479 H   0  0  0  0  0  0  0  0  0  0  0  0
  1  2  1  0
  2  3  1  0
  3  4  1  0
  3  5  1  0
  5  6  1  0
  6  7  1  0
  7  8  1  0
  7  9  2  0
  5 10  1  0
 10 11  2  0
 10 12  1  0
 12 13  1  0
 13 14  1  0
 14 15  1  0
 15 16  1  0
 16 17  1  0
 17 18  2  0
 17 19  1  0
 19 20  2  0
 20 21  1  0
 21 22  2  0
 22 23  1  0
 15 24  1  0
 24 25  1  0
 25 12  1  0
 23 19  1  0
  1 26  1  0
  1 27  1  0
  1 28  1  0
  2 29  1  0
  2 30  1  0
  3 31  1  0
  4 32  1  0
  4 33  1  0
  4 34  1  0
  5 35  1  0
  6 36  1  0
  8 37  1  0
  8 38  1  0
  8 39  1  0
 13 40  1  0
 13 41  1  0
 14 42  1  0
 14 43  1  0
 15 44  1  0
 16 45  1  0
 21 46  1  0
 22 47  1  0
 23 48  1  0
 24 49  1  0
 24 50  1  0
 25 51  1  0
 25 52  1  0
M  END
>  <Energy>  (413) 
73.102839565927397

>  <compound_id>  (413) 
38630

>  <target_id>  (413) 
1

>  <reference_id>  (413) 
44

>  <inspiration_ids>  (413) 
[44, 101]

>  <energy_score>  (413) 
37.96799295486585

>  <distance_score>  (413) 
13.371867759774254

>  <path>  (413) 
/opt/xchem-fragalysis-2/maxwin/BulkDock/SCRATCH/511020/C38630-P44/C38630-P44.minimised.mol

>  <scratch_subdir>  (413) 
/opt/xchem-fragalysis-2/maxwin/BulkDock/SCRATCH/511020/C38630-P44

>  <fragmenstein_runtime>  (413) 
57.77924823760986

>  <fragmenstein_outcome>  (413) 
too moved

>  <fragmenstein_mode>  (413) 
expansion

>  <fragmenstein_error>  (413) 


$$$$
C38630-P101
     RDKit          3D

 52 53  0  0  0  0  0  0  0  0999 V2000
    3.0666   -9.0600   31.7294 C   0  0  0  0  0  0  0  0  0  0  0  0
    2.0793   -9.9478   32.4698 C   0  0  0  0  0  0  0  0  0  0  0  0
    0.6738   -9.9896   31.8275 C   0  0  0  0  0  0  0  0  0  0  0  0
    0.7053  -10.5959   30.4203 C   0  0  0  0  0  0  0  0  0  0  0  0
   -0.3134  -10.7370   32.7590 C   0  0  0  0  0  0  0  0  0  0  0  0
    0.0983  -12.1100   33.0114 N   0  0  0  0  0  0  0  0  0  0  0  0
    0.2622  -12.8301   34.2376 C   0  0  0  0  0  0  0  0  0  0  0  0
    0.6236  -14.2700   33.9326 C   0  0  0  0  0  0  0  0  0  0  0  0
    0.1793  -12.4671   35.3731 O   0  0  0  0  0  0  0  0  0  0  0  0
   -1.8213  -10.5099   32.3611 C   0  0  0  0  0  0  0  0  0  0  0  0
   -2.1769   -9.4169   31.9919 O   0  0  0  0  0  0  0  0  0  0  0  0
   -2.5791  -11.7007   32.6090 N   0  0  0  0  0  0  0  0  0  0  0  0
   -2.6534  -12.5474   31.3393 C   0  0  0  0  0  0  0  0  0  0  0  0
   -2.8781  -14.0462   31.5065 C   0  0  0  0  0  0  0  0  0  0  0  0
   -4.2928  -14.3033   31.9937 C   0  0  0  0  0  0  0  0  0  0  0  0
   -4.5127  -15.6956   32.3268 N   0  0  0  0  0  0  0  0  0  0  0  0
   -5.4786  -16.3160   33.1821 C   0  0  0  0  0  0  0  0  0  0  0  0
   -6.3033  -15.8377   33.9048 O   0  0  0  0  0  0  0  0  0  0  0  0
   -5.4266  -17.7735   32.9986 C   0  0  0  0  0  0  0  0  0  0  0  0
   -4.6034  -18.3884   32.1627 N   0  0  0  0  0  0  0  0  0  0  0  0
   -4.8713  -19.7272   32.3025 C   0  0  0  0  0  0  0  0  0  0  0  0
   -5.8894  -19.9377   33.2016 C   0  0  0  0  0  0  0  0  0  0  0  0
   -6.2542  -18.6863   33.6142 N   0  0  0  0  0  0  0  0  0  0  0  0
   -4.5350  -13.2976   33.1037 C   0  0  0  0  0  0  0  0  0  0  0  0
   -4.0631  -11.9393   32.5988 C   0  0  0  0  0  0  0  0  0  0  0  0
    2.6636   -8.0519   31.5944 H   0  0  0  0  0  0  0  0  0  0  0  0
    3.9982   -8.9784   32.2986 H   0  0  0  0  0  0  0  0  0  0  0  0
    3.3165   -9.4759   30.7499 H   0  0  0  0  0  0  0  0  0  0  0  0
    1.9926   -9.5719   33.4969 H   0  0  0  0  0  0  0  0  0  0  0  0
    2.5002  -10.9582   32.5370 H   0  0  0  0  0  0  0  0  0  0  0  0
    0.3255   -8.9531   31.7248 H   0  0  0  0  0  0  0  0  0  0  0  0
   -0.3003  -10.6527   29.9924 H   0  0  0  0  0  0  0  0  0  0  0  0
    1.3038   -9.9812   29.7405 H   0  0  0  0  0  0  0  0  0  0  0  0
    1.1323  -11.6038   30.4243 H   0  0  0  0  0  0  0  0  0  0  0  0
   -0.2581  -10.2501   33.7442 H   0  0  0  0  0  0  0  0  0  0  0  0
    0.1597  -12.7582   32.2382 H   0  0  0  0  0  0  0  0  0  0  0  0
    1.0127  -14.7471   34.8373 H   0  0  0  0  0  0  0  0  0  0  0  0
    1.4002  -14.3203   33.1638 H   0  0  0  0  0  0  0  0  0  0  0  0
   -0.2662  -14.8106   33.6027 H   0  0  0  0  0  0  0  0  0  0  0  0
   -3.2335  -12.1029   30.5159 H   0  0  0  0  0  0  0  0  0  0  0  0
   -1.6391  -12.4827   30.9183 H   0  0  0  0  0  0  0  0  0  0  0  0
   -2.7042  -14.5647   30.5566 H   0  0  0  0  0  0  0  0  0  0  0  0
   -2.1521  -14.4517   32.2212 H   0  0  0  0  0  0  0  0  0  0  0  0
   -4.9943  -14.0898   31.1767 H   0  0  0  0  0  0  0  0  0  0  0  0
   -4.0289  -16.4201   31.7921 H   0  0  0  0  0  0  0  0  0  0  0  0
   -4.3100  -20.4637   31.7441 H   0  0  0  0  0  0  0  0  0  0  0  0
   -6.3761  -20.8341   33.5584 H   0  0  0  0  0  0  0  0  0  0  0  0
   -6.9781  -18.4421   34.2769 H   0  0  0  0  0  0  0  0  0  0  0  0
   -5.6015  -13.2569   33.3524 H   0  0  0  0  0  0  0  0  0  0  0  0
   -3.9969  -13.5797   34.0172 H   0  0  0  0  0  0  0  0  0  0  0  0
   -4.6267  -11.5742   31.7329 H   0  0  0  0  0  0  0  0  0  0  0  0
   -4.3938  -11.2257   33.3702 H   0  0  0  0  0  0  0  0  0  0  0  0
  1  2  1  0
  2  3  1  0
  3  4  1  0
  3  5  1  0
  5  6  1  0
  6  7  1  0
  7  8  1  0
  7  9  2  0
  5 10  1  0
 10 11  2  0
 10 12  1  0
 12 13  1  0
 13 14  1  0
 14 15  1  0
 15 16  1  0
 16 17  1  0
 17 18  2  0
 17 19  1  0
 19 20  2  0
 20 21  1  0
 21 22  2  0
 22 23  1  0
 15 24  1  0
 24 25  1  0
 25 12  1  0
 23 19  1  0
  1 26  1  0
  1 27  1  0
  1 28  1  0
  2 29  1  0
  2 30  1  0
  3 31  1  0
  4 32  1  0
  4 33  1  0
  4 34  1  0
  5 35  1  0
  6 36  1  0
  8 37  1  0
  8 38  1  0
  8 39  1  0
 13 40  1  0
 13 41  1  0
 14 42  1  0
 14 43  1  0
 15 44  1  0
 16 45  1  0
 21 46  1  0
 22 47  1  0
 23 48  1  0
 24 49  1  0
 24 50  1  0
 25 51  1  0
 25 52  1  0
M  END
>  <Energy>  (414) 
77.906955567920932

>  <compound_id>  (414) 
38630

>  <target_id>  (414) 
1

>  <reference_id>  (414) 
101

>  <inspiration_ids>  (414) 
[44, 101]

>  <energy_score>  (414) 
42.77210895686443

>  <distance_score>  (414) 
13.705084577334457

>  <path>  (414) 
/opt/xchem-fragalysis-2/maxwin/BulkDock/SCRATCH/511020/C38630-P101/C38630-P101.minimised.mol

>  <scratch_subdir>  (414) 
/opt/xchem-fragalysis-2/maxwin/BulkDock/SCRATCH/511020/C38630-P101

>  <fragmenstein_runtime>  (414) 
55.466286420822144

>  <fragmenstein_outcome>  (414) 
too moved

>  <fragmenstein_mode>  (414) 
expansion

>  <fragmenstein_error>  (414) 


$$$$
C38631-P44
     RDKit          3D

 46 47  0  0  0  0  0  0  0  0999 V2000
    2.9876   -5.0861   30.6289 C   0  0  0  0  0  0  0  0  0  0  0  0
    2.9050   -6.3728   29.8174 C   0  0  0  0  0  0  0  0  0  0  0  0
    3.8103   -6.3526   28.5785 C   0  0  0  0  0  0  0  0  0  0  0  0
    3.3367   -5.4150   27.5512 C   0  0  0  0  0  0  0  0  0  0  0  0
    2.8810   -4.7281   26.7338 N   0  0  0  0  0  0  0  0  0  0  0  0
    3.9305   -7.7690   27.9827 C   0  0  0  0  0  0  0  0  0  0  0  0
    4.9805   -8.3301   28.1174 O   0  0  0  0  0  0  0  0  0  0  0  0
    2.7014   -8.2093   27.3746 N   0  0  0  0  0  0  0  0  0  0  0  0
    2.3814   -9.4200   26.6578 C   0  0  0  0  0  0  0  0  0  0  0  0
    1.2391   -9.2391   25.6821 C   0  0  0  0  0  0  0  0  0  0  0  0
    0.9677  -10.5963   25.0790 C   0  0  0  0  0  0  0  0  0  0  0  0
    1.3465  -11.7004   26.0897 C   0  0  0  0  0  0  0  0  0  0  0  0
    0.7949  -11.4321   27.4821 N   0  0  0  0  0  0  0  0  0  0  0  0
    0.4068  -12.6588   28.1025 C   0  0  0  0  0  0  0  0  0  0  0  0
    1.0313  -13.4126   28.8040 O   0  0  0  0  0  0  0  0  0  0  0  0
   -1.0571  -12.9933   27.7963 C   0  0  0  0  0  0  0  0  0  0  0  0
   -2.0957  -12.1859   28.5621 C   0  0  0  0  0  0  0  0  0  0  0  0
   -3.0831  -12.9666   29.4935 C   0  0  0  0  0  0  0  0  0  0  0  0
   -4.5007  -12.8122   29.5659 N   0  0  0  0  0  0  0  0  0  0  0  0
   -5.3182  -14.1808   30.4118 C   0  0  0  0  0  0  0  0  0  0  0  0
   -4.2595  -15.0803   30.7076 C   0  0  0  0  0  0  0  0  0  0  0  0
   -2.9394  -14.5261   29.9472 N   0  0  0  0  0  0  0  0  0  0  0  0
    2.0806  -10.6241   27.5970 C   0  0  0  0  0  0  0  0  0  0  0  0
    4.0154   -4.8903   30.9505 H   0  0  0  0  0  0  0  0  0  0  0  0
    2.3629   -5.1660   31.5244 H   0  0  0  0  0  0  0  0  0  0  0  0
    2.6360   -4.2254   30.0516 H   0  0  0  0  0  0  0  0  0  0  0  0
    1.8596   -6.5478   29.5397 H   0  0  0  0  0  0  0  0  0  0  0  0
    3.1953   -7.2093   30.4658 H   0  0  0  0  0  0  0  0  0  0  0  0
    4.8213   -6.0484   28.8813 H   0  0  0  0  0  0  0  0  0  0  0  0
    2.0405   -7.4373   27.3657 H   0  0  0  0  0  0  0  0  0  0  0  0
    3.2923   -9.6700   26.0965 H   0  0  0  0  0  0  0  0  0  0  0  0
    1.4493   -8.4858   24.9163 H   0  0  0  0  0  0  0  0  0  0  0  0
    0.3343   -8.9433   26.2130 H   0  0  0  0  0  0  0  0  0  0  0  0
    1.5501  -10.7399   24.1617 H   0  0  0  0  0  0  0  0  0  0  0  0
   -0.0908  -10.6737   24.8038 H   0  0  0  0  0  0  0  0  0  0  0  0
    2.3923  -12.0514   26.0188 H   0  0  0  0  0  0  0  0  0  0  0  0
    0.8218  -12.5895   25.7270 H   0  0  0  0  0  0  0  0  0  0  0  0
   -1.1989  -14.0607   27.9777 H   0  0  0  0  0  0  0  0  0  0  0  0
   -1.2188  -12.8286   26.7256 H   0  0  0  0  0  0  0  0  0  0  0  0
   -1.6644  -11.3229   29.0737 H   0  0  0  0  0  0  0  0  0  0  0  0
   -2.7334  -11.8156   27.7669 H   0  0  0  0  0  0  0  0  0  0  0  0
   -6.3607  -14.0444   30.6414 H   0  0  0  0  0  0  0  0  0  0  0  0
   -4.0765  -15.9102   31.3436 H   0  0  0  0  0  0  0  0  0  0  0  0
   -2.0129  -14.8102   30.2148 H   0  0  0  0  0  0  0  0  0  0  0  0
    2.9585  -11.2760   27.7522 H   0  0  0  0  0  0  0  0  0  0  0  0
    1.9621  -10.2039   28.6087 H   0  0  0  0  0  0  0  0  0  0  0  0
  1  2  1  0
  2  3  1  0
  3  4  1  0
  4  5  3  0
  3  6  1  0
  6  7  2  0
  6  8  1  0
  8  9  1  0
  9 10  1  0
 10 11  1  0
 11 12  1  0
 12 13  1  0
 13 14  1  0
 14 15  2  0
 14 16  1  0
 16 17  1  0
 17 18  1  0
 18 19  2  0
 19 20  1  0
 20 21  2  0
 21 22  1  0
 13 23  1  0
 23  9  1  0
 22 18  1  0
  1 24  1  0
  1 25  1  0
  1 26  1  0
  2 27  1  0
  2 28  1  0
  3 29  1  0
  8 30  1  0
  9 31  1  0
 10 32  1  0
 10 33  1  0
 11 34  1  0
 11 35  1  0
 12 36  1  0
 12 37  1  0
 16 38  1  0
 16 39  1  0
 17 40  1  0
 17 41  1  0
 20 42  1  0
 21 43  1  0
 22 44  1  0
 23 45  1  0
 23 46  1  0
M  END
>  <Energy>  (415) 
165.10272652935993

>  <compound_id>  (415) 
38631

>  <target_id>  (415) 
1

>  <reference_id>  (415) 
44

>  <inspiration_ids>  (415) 
[44, 101]

>  <energy_score>  (415) 
143.8759649878724

>  <distance_score>  (415) 
13.405798473552945

>  <path>  (415) 
/opt/xchem-fragalysis-2/maxwin/BulkDock/SCRATCH/511020/C38631-P44/C38631-P44.minimised.mol

>  <scratch_subdir>  (415) 
/opt/xchem-fragalysis-2/maxwin/BulkDock/SCRATCH/511020/C38631-P44

>  <fragmenstein_runtime>  (415) 
22.864689350128174

>  <fragmenstein_outcome>  (415) 
too moved

>  <fragmenstein_mode>  (415) 
expansion

>  <fragmenstein_error>  (415) 


$$$$
C38631-P101
     RDKit          3D

 46 47  0  0  0  0  0  0  0  0999 V2000
    0.6442   -2.0095   28.4533 C   0  0  0  0  0  0  0  0  0  0  0  0
   -0.6831   -2.6738   28.8001 C   0  0  0  0  0  0  0  0  0  0  0  0
   -1.9500   -1.8385   28.4945 C   0  0  0  0  0  0  0  0  0  0  0  0
   -1.7685   -0.4409   28.9422 C   0  0  0  0  0  0  0  0  0  0  0  0
   -1.6365    0.6633   29.2782 N   0  0  0  0  0  0  0  0  0  0  0  0
   -3.1370   -2.4298   29.2924 C   0  0  0  0  0  0  0  0  0  0  0  0
   -2.9792   -2.5301   30.5047 O   0  0  0  0  0  0  0  0  0  0  0  0
   -4.4340   -2.7170   28.3878 N   0  0  0  0  0  0  0  0  0  0  0  0
   -5.9246   -3.3400   28.7910 C   0  0  0  0  0  0  0  0  0  0  0  0
   -6.8257   -3.9649   27.7121 C   0  0  0  0  0  0  0  0  0  0  0  0
   -8.2804   -3.7469   28.1452 C   0  0  0  0  0  0  0  0  0  0  0  0
   -8.3622   -3.6162   29.6704 C   0  0  0  0  0  0  0  0  0  0  0  0
   -7.6560   -4.7858   30.2977 N   0  0  0  0  0  0  0  0  0  0  0  0
   -8.4019   -5.2653   31.4184 C   0  0  0  0  0  0  0  0  0  0  0  0
   -8.3419   -4.9672   32.5833 O   0  0  0  0  0  0  0  0  0  0  0  0
   -9.5087   -6.2453   30.9664 C   0  0  0  0  0  0  0  0  0  0  0  0
   -9.1382   -7.4141   30.0567 C   0  0  0  0  0  0  0  0  0  0  0  0
   -8.6326   -8.5761   30.8370 C   0  0  0  0  0  0  0  0  0  0  0  0
   -7.3764   -8.9429   30.9152 N   0  0  0  0  0  0  0  0  0  0  0  0
   -7.3358   -9.8475   31.9288 C   0  0  0  0  0  0  0  0  0  0  0  0
   -8.5807  -10.0554   32.4726 C   0  0  0  0  0  0  0  0  0  0  0  0
   -9.4215   -9.3435   31.6627 N   0  0  0  0  0  0  0  0  0  0  0  0
   -6.4308   -3.7983   30.2245 C   0  0  0  0  0  0  0  0  0  0  0  0
    1.4534   -2.7460   28.4936 H   0  0  0  0  0  0  0  0  0  0  0  0
    0.8881   -1.2189   29.1703 H   0  0  0  0  0  0  0  0  0  0  0  0
    0.6343   -1.5683   27.4569 H   0  0  0  0  0  0  0  0  0  0  0  0
   -0.6400   -2.9385   29.8647 H   0  0  0  0  0  0  0  0  0  0  0  0
   -0.7502   -3.6310   28.2715 H   0  0  0  0  0  0  0  0  0  0  0  0
   -2.1787   -1.8120   27.4360 H   0  0  0  0  0  0  0  0  0  0  0  0
   -4.1919   -2.6113   27.4068 H   0  0  0  0  0  0  0  0  0  0  0  0
   -6.5022   -2.4436   28.6533 H   0  0  0  0  0  0  0  0  0  0  0  0
   -6.7427   -3.4463   26.7557 H   0  0  0  0  0  0  0  0  0  0  0  0
   -6.6447   -5.0359   27.5922 H   0  0  0  0  0  0  0  0  0  0  0  0
   -8.8917   -4.5857   27.7909 H   0  0  0  0  0  0  0  0  0  0  0  0
   -8.6909   -2.8395   27.6857 H   0  0  0  0  0  0  0  0  0  0  0  0
   -8.2052   -2.6029   30.0792 H   0  0  0  0  0  0  0  0  0  0  0  0
   -9.4328   -3.7362   29.8927 H   0  0  0  0  0  0  0  0  0  0  0  0
  -10.2648   -5.6419   30.4492 H   0  0  0  0  0  0  0  0  0  0  0  0
  -10.0061   -6.6110   31.8747 H   0  0  0  0  0  0  0  0  0  0  0  0
  -10.0294   -7.7352   29.5033 H   0  0  0  0  0  0  0  0  0  0  0  0
   -8.3927   -7.1189   29.3106 H   0  0  0  0  0  0  0  0  0  0  0  0
   -6.3885  -10.2871   32.1831 H   0  0  0  0  0  0  0  0  0  0  0  0
   -8.9421  -10.6666   33.2842 H   0  0  0  0  0  0  0  0  0  0  0  0
  -10.4250   -9.2728   31.7517 H   0  0  0  0  0  0  0  0  0  0  0  0
   -5.6670   -4.3881   30.7199 H   0  0  0  0  0  0  0  0  0  0  0  0
   -6.5287   -2.9803   30.9583 H   0  0  0  0  0  0  0  0  0  0  0  0
  1  2  1  0
  2  3  1  0
  3  4  1  0
  4  5  3  0
  3  6  1  0
  6  7  2  0
  6  8  1  0
  8  9  1  0
  9 10  1  0
 10 11  1  0
 11 12  1  0
 12 13  1  0
 13 14  1  0
 14 15  2  0
 14 16  1  0
 16 17  1  0
 17 18  1  0
 18 19  2  0
 19 20  1  0
 20 21  2  0
 21 22  1  0
 13 23  1  0
 23  9  1  0
 22 18  1  0
  1 24  1  0
  1 25  1  0
  1 26  1  0
  2 27  1  0
  2 28  1  0
  3 29  1  0
  8 30  1  0
  9 31  1  0
 10 32  1  0
 10 33  1  0
 11 34  1  0
 11 35  1  0
 12 36  1  0
 12 37  1  0
 16 38  1  0
 16 39  1  0
 17 40  1  0
 17 41  1  0
 20 42  1  0
 21 43  1  0
 22 44  1  0
 23 45  1  0
 23 46  1  0
M  END
>  <Energy>  (416) 
135.96814771710226

>  <compound_id>  (416) 
38631

>  <target_id>  (416) 
1

>  <reference_id>  (416) 
101

>  <inspiration_ids>  (416) 
[44, 101]

>  <energy_score>  (416) 
114.74138617561312

>  <distance_score>  (416) 
12.661311643972521

>  <path>  (416) 
/opt/xchem-fragalysis-2/maxwin/BulkDock/SCRATCH/511020/C38631-P101/C38631-P101.minimised.mol

>  <scratch_subdir>  (416) 
/opt/xchem-fragalysis-2/maxwin/BulkDock/SCRATCH/511020/C38631-P101

>  <fragmenstein_runtime>  (416) 
24.994478940963745

>  <fragmenstein_outcome>  (416) 
too moved

>  <fragmenstein_mode>  (416) 
expansion

>  <fragmenstein_error>  (416) 


$$$$
C54386-P44
     RDKit          3D

 47 48  0  0  0  0  0  0  0  0999 V2000
   -8.1896  -25.5190   31.1601 C   0  0  0  0  0  0  0  0  0  0  0  0
   -9.0828  -24.3476   31.3257 O   0  0  0  0  0  0  0  0  0  0  0  0
   -9.6352  -23.7618   32.4047 C   0  0  0  0  0  0  0  0  0  0  0  0
   -9.9745  -24.5852   33.1583 O   0  0  0  0  0  0  0  0  0  0  0  0
   -9.9011  -21.6999   32.4672 C   0  0  0  0  0  0  0  0  0  0  0  0
  -11.0516  -21.4271   30.8762 C   0  0  0  0  0  0  0  0  0  0  0  0
  -11.1097  -21.8707   29.3815 C   0  0  0  0  0  0  0  0  0  0  0  0
  -12.1288  -21.4870   28.5717 C   0  0  0  0  0  0  0  0  0  0  0  0
  -12.0847  -22.2175   27.4297 N   0  0  0  0  0  0  0  0  0  0  0  0
  -11.1232  -23.1469   27.6187 C   0  0  0  0  0  0  0  0  0  0  0  0
  -10.4716  -22.9079   28.7324 N   0  0  0  0  0  0  0  0  0  0  0  0
   -9.6301  -20.2227   33.7739 N   0  0  0  0  0  0  0  0  0  0  0  0
   -9.8473  -18.6140   33.6131 C   0  0  0  0  0  0  0  0  0  0  0  0
  -10.1447  -17.9621   32.6323 O   0  0  0  0  0  0  0  0  0  0  0  0
   -9.7955  -17.6143   34.9733 C   0  0  0  0  0  0  0  0  0  0  0  0
  -11.0270  -17.8550   35.8060 C   0  0  0  0  0  0  0  0  0  0  0  0
   -9.7533  -16.0082   34.7195 N   0  0  0  0  0  0  0  0  0  0  0  0
   -9.8999  -15.1301   35.9025 C   0  0  0  0  0  0  0  0  0  0  0  0
   -9.6301  -13.5900   35.7323 C   0  0  0  0  0  0  0  0  0  0  0  0
  -10.1052  -12.9609   34.4266 C   0  0  0  0  0  0  0  0  0  0  0  0
   -9.0410  -12.5055   33.5973 O   0  0  0  0  0  0  0  0  0  0  0  0
  -11.0244  -13.9591   33.7322 C   0  0  0  0  0  0  0  0  0  0  0  0
  -10.5116  -15.4257   33.5821 C   0  0  0  0  0  0  0  0  0  0  0  0
   -7.1164  -25.3442   31.0207 H   0  0  0  0  0  0  0  0  0  0  0  0
   -8.3043  -26.1992   30.3132 H   0  0  0  0  0  0  0  0  0  0  0  0
   -8.6069  -25.9944   31.9831 H   0  0  0  0  0  0  0  0  0  0  0  0
  -10.8144  -22.3535   32.6152 H   0  0  0  0  0  0  0  0  0  0  0  0
  -11.9905  -20.9396   31.0959 H   0  0  0  0  0  0  0  0  0  0  0  0
  -11.4121  -22.4448   31.0137 H   0  0  0  0  0  0  0  0  0  0  0  0
  -12.8783  -20.7681   28.7998 H   0  0  0  0  0  0  0  0  0  0  0  0
  -12.7406  -22.1542   26.6622 H   0  0  0  0  0  0  0  0  0  0  0  0
  -10.9137  -23.9435   26.9203 H   0  0  0  0  0  0  0  0  0  0  0  0
   -9.3044  -20.4282   34.7098 H   0  0  0  0  0  0  0  0  0  0  0  0
   -8.9241  -17.8828   35.5662 H   0  0  0  0  0  0  0  0  0  0  0  0
  -11.9395  -17.5305   35.2945 H   0  0  0  0  0  0  0  0  0  0  0  0
  -10.9786  -17.3685   36.7847 H   0  0  0  0  0  0  0  0  0  0  0  0
  -11.1446  -18.9235   36.0165 H   0  0  0  0  0  0  0  0  0  0  0  0
   -9.2375  -15.4920   36.6983 H   0  0  0  0  0  0  0  0  0  0  0  0
  -10.9241  -15.2228   36.2864 H   0  0  0  0  0  0  0  0  0  0  0  0
  -10.1778  -13.1054   36.5531 H   0  0  0  0  0  0  0  0  0  0  0  0
   -8.5924  -13.3552   35.9289 H   0  0  0  0  0  0  0  0  0  0  0  0
  -10.6934  -12.0643   34.6573 H   0  0  0  0  0  0  0  0  0  0  0  0
   -8.5972  -11.7231   33.9871 H   0  0  0  0  0  0  0  0  0  0  0  0
  -11.9513  -14.0119   34.3225 H   0  0  0  0  0  0  0  0  0  0  0  0
  -11.3304  -13.5923   32.7574 H   0  0  0  0  0  0  0  0  0  0  0  0
  -11.4078  -16.0310   33.4011 H   0  0  0  0  0  0  0  0  0  0  0  0
   -9.9039  -15.4736   32.6736 H   0  0  0  0  0  0  0  0  0  0  0  0
  1  2  1  0
  2  3  1  0
  3  4  2  0
  3  5  1  0
  5  6  1  0
  6  7  1  0
  7  8  2  0
  8  9  1  0
  9 10  1  0
 10 11  2  0
  5 12  1  0
 12 13  1  0
 13 14  2  0
 13 15  1  0
 15 16  1  0
 15 17  1  0
 17 18  1  0
 18 19  1  0
 19 20  1  0
 20 21  1  0
 20 22  1  0
 22 23  1  0
 11  7  1  0
 23 17  1  0
  1 24  1  0
  1 25  1  0
  1 26  1  0
  5 27  1  0
  6 28  1  0
  6 29  1  0
  8 30  1  0
  9 31  1  0
 10 32  1  0
 12 33  1  0
 15 34  1  0
 16 35  1  0
 16 36  1  0
 16 37  1  0
 18 38  1  0
 18 39  1  0
 19 40  1  0
 19 41  1  0
 20 42  1  0
 21 43  1  0
 22 44  1  0
 22 45  1  0
 23 46  1  0
 23 47  1  0
M  END
>  <Energy>  (417) 
463.91094627131366

>  <compound_id>  (417) 
54386

>  <target_id>  (417) 
1

>  <reference_id>  (417) 
44

>  <inspiration_ids>  (417) 
[44, 101]

>  <energy_score>  (417) 
354.01090401155966

>  <distance_score>  (417) 
16.049571061707866

>  <path>  (417) 
/opt/xchem-fragalysis-2/maxwin/BulkDock/SCRATCH/511020/C54386-P44/C54386-P44.minimised.mol

>  <scratch_subdir>  (417) 
/opt/xchem-fragalysis-2/maxwin/BulkDock/SCRATCH/511020/C54386-P44

>  <fragmenstein_runtime>  (417) 
26.657032251358032

>  <fragmenstein_outcome>  (417) 
too moved

>  <fragmenstein_mode>  (417) 
expansion

>  <fragmenstein_error>  (417) 


$$$$
C54386-P101
     RDKit          3D

 47 48  0  0  0  0  0  0  0  0999 V2000
   -0.4004  -14.3067   36.2475 C   0  0  0  0  0  0  0  0  0  0  0  0
   -0.3747  -14.5630   34.8435 O   0  0  0  0  0  0  0  0  0  0  0  0
   -0.7800  -13.5152   34.0633 C   0  0  0  0  0  0  0  0  0  0  0  0
   -1.0492  -12.4148   34.5302 O   0  0  0  0  0  0  0  0  0  0  0  0
   -0.7342  -13.9074   32.5213 C   0  0  0  0  0  0  0  0  0  0  0  0
   -0.8113  -15.4781   32.2522 C   0  0  0  0  0  0  0  0  0  0  0  0
   -1.7056  -16.4278   33.0743 C   0  0  0  0  0  0  0  0  0  0  0  0
   -2.8321  -16.2505   33.8535 C   0  0  0  0  0  0  0  0  0  0  0  0
   -3.2741  -17.5025   34.2025 N   0  0  0  0  0  0  0  0  0  0  0  0
   -2.3362  -18.3933   33.7794 C   0  0  0  0  0  0  0  0  0  0  0  0
   -1.3891  -17.7884   33.0984 N   0  0  0  0  0  0  0  0  0  0  0  0
   -0.3858  -12.6632   31.3303 N   0  0  0  0  0  0  0  0  0  0  0  0
   -1.5080  -11.4187   30.4609 C   0  0  0  0  0  0  0  0  0  0  0  0
   -2.7149  -11.2993   30.4917 O   0  0  0  0  0  0  0  0  0  0  0  0
   -0.3985  -10.1589   29.5494 C   0  0  0  0  0  0  0  0  0  0  0  0
    1.1469  -10.2338   29.5130 C   0  0  0  0  0  0  0  0  0  0  0  0
   -0.7344   -8.5606   29.5764 N   0  0  0  0  0  0  0  0  0  0  0  0
   -0.7516   -7.6455   30.7448 C   0  0  0  0  0  0  0  0  0  0  0  0
    0.1541   -6.3772   30.6990 C   0  0  0  0  0  0  0  0  0  0  0  0
    0.0926   -5.5647   29.3910 C   0  0  0  0  0  0  0  0  0  0  0  0
   -0.6164   -4.3314   29.5464 O   0  0  0  0  0  0  0  0  0  0  0  0
   -0.4746   -6.4094   28.2584 C   0  0  0  0  0  0  0  0  0  0  0  0
   -0.0556   -7.8722   28.4348 C   0  0  0  0  0  0  0  0  0  0  0  0
    0.3210  -13.5254   36.5054 H   0  0  0  0  0  0  0  0  0  0  0  0
   -0.1150  -15.2269   36.7646 H   0  0  0  0  0  0  0  0  0  0  0  0
   -1.4086  -14.0279   36.5699 H   0  0  0  0  0  0  0  0  0  0  0  0
    0.3687  -13.9543   32.6369 H   0  0  0  0  0  0  0  0  0  0  0  0
    0.2043  -15.8895   32.3745 H   0  0  0  0  0  0  0  0  0  0  0  0
   -0.9941  -15.5725   31.1937 H   0  0  0  0  0  0  0  0  0  0  0  0
   -3.3747  -15.3727   34.1692 H   0  0  0  0  0  0  0  0  0  0  0  0
   -4.1091  -17.7220   34.7285 H   0  0  0  0  0  0  0  0  0  0  0  0
   -2.4044  -19.4551   33.9743 H   0  0  0  0  0  0  0  0  0  0  0  0
    0.5460  -12.4747   31.1133 H   0  0  0  0  0  0  0  0  0  0  0  0
   -0.6864  -10.3354   28.5215 H   0  0  0  0  0  0  0  0  0  0  0  0
    1.5155  -10.0666   28.4933 H   0  0  0  0  0  0  0  0  0  0  0  0
    1.6210   -9.4819   30.1543 H   0  0  0  0  0  0  0  0  0  0  0  0
    1.5590  -11.1904   29.8132 H   0  0  0  0  0  0  0  0  0  0  0  0
   -0.6275   -8.1325   31.7071 H   0  0  0  0  0  0  0  0  0  0  0  0
   -1.7710   -7.2449   30.8128 H   0  0  0  0  0  0  0  0  0  0  0  0
   -0.0870   -5.7348   31.5542 H   0  0  0  0  0  0  0  0  0  0  0  0
    1.1874   -6.7207   30.8419 H   0  0  0  0  0  0  0  0  0  0  0  0
    1.1178   -5.2691   29.1432 H   0  0  0  0  0  0  0  0  0  0  0  0
   -0.7311   -3.9288   28.6642 H   0  0  0  0  0  0  0  0  0  0  0  0
   -0.1218   -6.0182   27.2989 H   0  0  0  0  0  0  0  0  0  0  0  0
   -1.5594   -6.3515   28.1942 H   0  0  0  0  0  0  0  0  0  0  0  0
    1.0222   -7.9029   28.5958 H   0  0  0  0  0  0  0  0  0  0  0  0
   -0.2347   -8.4051   27.4962 H   0  0  0  0  0  0  0  0  0  0  0  0
  1  2  1  0
  2  3  1  0
  3  4  2  0
  3  5  1  0
  5  6  1  0
  6  7  1  0
  7  8  2  0
  8  9  1  0
  9 10  1  0
 10 11  2  0
  5 12  1  0
 12 13  1  0
 13 14  2  0
 13 15  1  0
 15 16  1  0
 15 17  1  0
 17 18  1  0
 18 19  1  0
 19 20  1  0
 20 21  1  0
 20 22  1  0
 22 23  1  0
 11  7  1  0
 23 17  1  0
  1 24  1  0
  1 25  1  0
  1 26  1  0
  5 27  1  0
  6 28  1  0
  6 29  1  0
  8 30  1  0
  9 31  1  0
 10 32  1  0
 12 33  1  0
 15 34  1  0
 16 35  1  0
 16 36  1  0
 16 37  1  0
 18 38  1  0
 18 39  1  0
 19 40  1  0
 19 41  1  0
 20 42  1  0
 21 43  1  0
 22 44  1  0
 22 45  1  0
 23 46  1  0
 23 47  1  0
M  END
>  <Energy>  (418) 
259.33985293098567

>  <compound_id>  (418) 
54386

>  <target_id>  (418) 
1

>  <reference_id>  (418) 
101

>  <inspiration_ids>  (418) 
[44, 101]

>  <energy_score>  (418) 
149.43981067123826

>  <distance_score>  (418) 
11.840501300089295

>  <path>  (418) 
/opt/xchem-fragalysis-2/maxwin/BulkDock/SCRATCH/511020/C54386-P101/C54386-P101.minimised.mol

>  <scratch_subdir>  (418) 
/opt/xchem-fragalysis-2/maxwin/BulkDock/SCRATCH/511020/C54386-P101

>  <fragmenstein_runtime>  (418) 
21.84072232246399

>  <fragmenstein_outcome>  (418) 
too moved

>  <fragmenstein_mode>  (418) 
expansion

>  <fragmenstein_error>  (418) 


$$$$
C38632-P44
     RDKit          3D

 44 45  0  0  0  0  0  0  0  0999 V2000
   -7.5670   -7.7906   27.2082 C   0  0  0  0  0  0  0  0  0  0  0  0
   -8.4384   -6.5697   26.9035 C   0  0  0  0  0  0  0  0  0  0  0  0
   -7.7992   -5.3442   27.5997 C   0  0  0  0  0  0  0  0  0  0  0  0
   -8.5151   -4.0527   27.2442 C   0  0  0  0  0  0  0  0  0  0  0  0
   -9.9903   -4.2078   27.5718 C   0  0  0  0  0  0  0  0  0  0  0  0
  -10.5905   -5.4886   26.9578 C   0  0  0  0  0  0  0  0  0  0  0  0
   -9.8590   -6.7224   27.3301 N   0  0  0  0  0  0  0  0  0  0  0  0
  -10.5334   -7.9732   26.7677 C   0  0  0  0  0  0  0  0  0  0  0  0
  -11.9242   -8.3869   27.4500 C   0  0  0  0  0  0  0  0  0  0  0  0
  -12.4048   -7.6582   28.2826 O   0  0  0  0  0  0  0  0  0  0  0  0
  -12.4226   -9.6585   26.8906 N   0  0  0  0  0  0  0  0  0  0  0  0
  -13.2688   -9.3867   25.6505 C   0  0  0  0  0  0  0  0  0  0  0  0
  -13.3771  -10.4421   24.5287 C   0  0  0  0  0  0  0  0  0  0  0  0
  -12.1105  -11.0488   24.2969 O   0  0  0  0  0  0  0  0  0  0  0  0
  -13.6601  -10.5167   27.2785 C   0  0  0  0  0  0  0  0  0  0  0  0
  -13.6455  -12.0586   27.1652 C   0  0  0  0  0  0  0  0  0  0  0  0
  -14.5937  -12.8676   27.6245 N   0  0  0  0  0  0  0  0  0  0  0  0
  -14.1273  -14.1527   27.4977 C   0  0  0  0  0  0  0  0  0  0  0  0
  -12.8860  -14.1434   26.9245 C   0  0  0  0  0  0  0  0  0  0  0  0
  -12.6212  -12.8206   26.6580 N   0  0  0  0  0  0  0  0  0  0  0  0
   -7.8143   -8.6216   26.5427 H   0  0  0  0  0  0  0  0  0  0  0  0
   -6.5081   -7.5696   27.0366 H   0  0  0  0  0  0  0  0  0  0  0  0
   -7.6785   -8.1160   28.2478 H   0  0  0  0  0  0  0  0  0  0  0  0
   -8.4040   -6.4088   25.8167 H   0  0  0  0  0  0  0  0  0  0  0  0
   -6.7535   -5.2588   27.3121 H   0  0  0  0  0  0  0  0  0  0  0  0
   -7.8120   -5.4860   28.6888 H   0  0  0  0  0  0  0  0  0  0  0  0
   -8.0876   -3.2117   27.8002 H   0  0  0  0  0  0  0  0  0  0  0  0
   -8.3894   -3.8376   26.1765 H   0  0  0  0  0  0  0  0  0  0  0  0
  -10.5436   -3.3339   27.2097 H   0  0  0  0  0  0  0  0  0  0  0  0
  -10.1211   -4.2391   28.6610 H   0  0  0  0  0  0  0  0  0  0  0  0
  -11.6315   -5.5493   27.2901 H   0  0  0  0  0  0  0  0  0  0  0  0
  -10.6151   -5.3836   25.8649 H   0  0  0  0  0  0  0  0  0  0  0  0
  -10.6748   -7.8578   25.6885 H   0  0  0  0  0  0  0  0  0  0  0  0
   -9.8859   -8.8329   26.9430 H   0  0  0  0  0  0  0  0  0  0  0  0
  -12.6861   -8.5957   25.1514 H   0  0  0  0  0  0  0  0  0  0  0  0
  -14.2013   -8.8279   25.8406 H   0  0  0  0  0  0  0  0  0  0  0  0
  -14.1160  -11.2180   24.7408 H   0  0  0  0  0  0  0  0  0  0  0  0
  -13.6924   -9.9452   23.6040 H   0  0  0  0  0  0  0  0  0  0  0  0
  -12.1818  -11.5338   23.4552 H   0  0  0  0  0  0  0  0  0  0  0  0
  -14.6736  -10.1117   27.1177 H   0  0  0  0  0  0  0  0  0  0  0  0
  -13.6088  -10.3933   28.3754 H   0  0  0  0  0  0  0  0  0  0  0  0
  -14.7054  -15.0002   27.8411 H   0  0  0  0  0  0  0  0  0  0  0  0
  -12.1868  -14.9325   26.6960 H   0  0  0  0  0  0  0  0  0  0  0  0
  -11.7802  -12.4302   26.2506 H   0  0  0  0  0  0  0  0  0  0  0  0
  1  2  1  0
  2  3  1  0
  3  4  1  0
  4  5  1  0
  5  6  1  0
  6  7  1  0
  7  8  1  0
  8  9  1  0
  9 10  2  0
  9 11  1  0
 11 12  1  0
 12 13  1  0
 13 14  1  0
 11 15  1  0
 15 16  1  0
 16 17  2  0
 17 18  1  0
 18 19  2  0
 19 20  1  0
  7  2  1  0
 20 16  1  0
  1 21  1  0
  1 22  1  0
  1 23  1  0
  2 24  1  0
  3 25  1  0
  3 26  1  0
  4 27  1  0
  4 28  1  0
  5 29  1  0
  5 30  1  0
  6 31  1  0
  6 32  1  0
  8 33  1  0
  8 34  1  0
 12 35  1  0
 12 36  1  0
 13 37  1  0
 13 38  1  0
 14 39  1  0
 15 40  1  0
 15 41  1  0
 18 42  1  0
 19 43  1  0
 20 44  1  0
M  END
>  <Energy>  (419) 
139.16667263588312

>  <compound_id>  (419) 
38632

>  <target_id>  (419) 
1

>  <reference_id>  (419) 
44

>  <inspiration_ids>  (419) 
[44, 101]

>  <energy_score>  (419) 
21.83513121422584

>  <distance_score>  (419) 
12.107493383521353

>  <path>  (419) 
/opt/xchem-fragalysis-2/maxwin/BulkDock/SCRATCH/511020/C38632-P44/C38632-P44.minimised.mol

>  <scratch_subdir>  (419) 
/opt/xchem-fragalysis-2/maxwin/BulkDock/SCRATCH/511020/C38632-P44

>  <fragmenstein_runtime>  (419) 
34.71177625656128

>  <fragmenstein_outcome>  (419) 
too moved

>  <fragmenstein_mode>  (419) 
expansion

>  <fragmenstein_error>  (419) 


$$$$
C38632-P101
     RDKit          3D

 44 45  0  0  0  0  0  0  0  0999 V2000
   -9.4521   -5.6637   24.0144 C   0  0  0  0  0  0  0  0  0  0  0  0
   -9.5709   -5.7115   25.5471 C   0  0  0  0  0  0  0  0  0  0  0  0
   -8.8872   -4.4227   26.0823 C   0  0  0  0  0  0  0  0  0  0  0  0
   -8.6446   -4.4478   27.5796 C   0  0  0  0  0  0  0  0  0  0  0  0
   -8.0699   -5.7800   28.0463 C   0  0  0  0  0  0  0  0  0  0  0  0
   -7.8457   -6.7863   26.9128 C   0  0  0  0  0  0  0  0  0  0  0  0
   -8.9997   -6.9955   26.0199 N   0  0  0  0  0  0  0  0  0  0  0  0
  -10.0064   -7.9783   26.6017 C   0  0  0  0  0  0  0  0  0  0  0  0
  -11.0811   -8.5996   25.5821 C   0  0  0  0  0  0  0  0  0  0  0  0
  -11.4048   -7.9539   24.6159 O   0  0  0  0  0  0  0  0  0  0  0  0
  -11.5575   -9.8979   26.0548 N   0  0  0  0  0  0  0  0  0  0  0  0
  -12.7311   -9.7057   27.0220 C   0  0  0  0  0  0  0  0  0  0  0  0
  -13.8589   -8.6826   26.6792 C   0  0  0  0  0  0  0  0  0  0  0  0
  -13.3822   -7.3434   26.6141 O   0  0  0  0  0  0  0  0  0  0  0  0
  -12.5397  -10.9094   25.4093 C   0  0  0  0  0  0  0  0  0  0  0  0
  -12.7879  -12.3448   25.9496 C   0  0  0  0  0  0  0  0  0  0  0  0
  -12.1747  -13.0253   26.8993 N   0  0  0  0  0  0  0  0  0  0  0  0
  -12.7870  -14.2537   26.9996 C   0  0  0  0  0  0  0  0  0  0  0  0
  -13.7865  -14.3570   26.0694 C   0  0  0  0  0  0  0  0  0  0  0  0
  -13.7748  -13.1554   25.4043 N   0  0  0  0  0  0  0  0  0  0  0  0
   -9.9378   -4.7635   23.6213 H   0  0  0  0  0  0  0  0  0  0  0  0
   -9.9138   -6.5222   23.5234 H   0  0  0  0  0  0  0  0  0  0  0  0
   -8.4023   -5.6414   23.6987 H   0  0  0  0  0  0  0  0  0  0  0  0
  -10.6317   -5.6549   25.8221 H   0  0  0  0  0  0  0  0  0  0  0  0
   -9.5058   -3.5516   25.8319 H   0  0  0  0  0  0  0  0  0  0  0  0
   -7.9318   -4.2618   25.5767 H   0  0  0  0  0  0  0  0  0  0  0  0
   -9.5918   -4.2671   28.1029 H   0  0  0  0  0  0  0  0  0  0  0  0
   -7.9767   -3.6259   27.8631 H   0  0  0  0  0  0  0  0  0  0  0  0
   -8.7475   -6.2187   28.7896 H   0  0  0  0  0  0  0  0  0  0  0  0
   -7.1231   -5.6063   28.5698 H   0  0  0  0  0  0  0  0  0  0  0  0
   -7.5093   -7.7421   27.3339 H   0  0  0  0  0  0  0  0  0  0  0  0
   -7.0026   -6.4457   26.2999 H   0  0  0  0  0  0  0  0  0  0  0  0
  -10.5537   -7.5035   27.4235 H   0  0  0  0  0  0  0  0  0  0  0  0
   -9.4470   -8.8283   27.0044 H   0  0  0  0  0  0  0  0  0  0  0  0
  -13.1398  -10.6110   27.4899 H   0  0  0  0  0  0  0  0  0  0  0  0
  -12.2184   -9.2400   27.8795 H   0  0  0  0  0  0  0  0  0  0  0  0
  -14.3994   -8.9001   25.7555 H   0  0  0  0  0  0  0  0  0  0  0  0
  -14.5943   -8.7096   27.4906 H   0  0  0  0  0  0  0  0  0  0  0  0
  -13.0022   -7.2054   25.7211 H   0  0  0  0  0  0  0  0  0  0  0  0
  -13.4464  -10.4605   24.9848 H   0  0  0  0  0  0  0  0  0  0  0  0
  -11.9830  -11.1229   24.4802 H   0  0  0  0  0  0  0  0  0  0  0  0
  -12.4607  -14.9832   27.7283 H   0  0  0  0  0  0  0  0  0  0  0  0
  -14.4819  -15.1448   25.8195 H   0  0  0  0  0  0  0  0  0  0  0  0
  -14.3781  -12.9001   24.6342 H   0  0  0  0  0  0  0  0  0  0  0  0
  1  2  1  0
  2  3  1  0
  3  4  1  0
  4  5  1  0
  5  6  1  0
  6  7  1  0
  7  8  1  0
  8  9  1  0
  9 10  2  0
  9 11  1  0
 11 12  1  0
 12 13  1  0
 13 14  1  0
 11 15  1  0
 15 16  1  0
 16 17  2  0
 17 18  1  0
 18 19  2  0
 19 20  1  0
  7  2  1  0
 20 16  1  0
  1 21  1  0
  1 22  1  0
  1 23  1  0
  2 24  1  0
  3 25  1  0
  3 26  1  0
  4 27  1  0
  4 28  1  0
  5 29  1  0
  5 30  1  0
  6 31  1  0
  6 32  1  0
  8 33  1  0
  8 34  1  0
 12 35  1  0
 12 36  1  0
 13 37  1  0
 13 38  1  0
 14 39  1  0
 15 40  1  0
 15 41  1  0
 18 42  1  0
 19 43  1  0
 20 44  1  0
M  END
>  <Energy>  (420) 
146.99980899386375

>  <compound_id>  (420) 
38632

>  <target_id>  (420) 
1

>  <reference_id>  (420) 
101

>  <inspiration_ids>  (420) 
[44, 101]

>  <energy_score>  (420) 
29.66826757220167

>  <distance_score>  (420) 
11.92375369886676

>  <path>  (420) 
/opt/xchem-fragalysis-2/maxwin/BulkDock/SCRATCH/511020/C38632-P101/C38632-P101.minimised.mol

>  <scratch_subdir>  (420) 
/opt/xchem-fragalysis-2/maxwin/BulkDock/SCRATCH/511020/C38632-P101

>  <fragmenstein_runtime>  (420) 
39.859527349472046

>  <fragmenstein_outcome>  (420) 
too moved

>  <fragmenstein_mode>  (420) 
expansion

>  <fragmenstein_error>  (420) 


$$$$
C38633-P44
     RDKit          3D

 44 45  0  0  0  0  0  0  0  0999 V2000
   -8.5039   -8.1020   31.7543 C   0  0  0  0  0  0  0  0  0  0  0  0
   -7.0549   -8.5677   31.5296 C   0  0  0  0  0  0  0  0  0  0  0  0
   -6.3040   -7.5468   30.6867 C   0  0  0  0  0  0  0  0  0  0  0  0
   -6.6624   -7.6407   29.2189 C   0  0  0  0  0  0  0  0  0  0  0  0
   -7.1863   -9.0120   28.7458 C   0  0  0  0  0  0  0  0  0  0  0  0
   -6.6695  -10.3340   29.4911 N   0  0  0  0  0  0  0  0  0  0  0  0
   -6.0648  -12.1003   28.7102 C   0  0  0  0  0  0  0  0  0  0  0  0
   -7.1919  -13.3729   27.5713 C   0  0  0  0  0  0  0  0  0  0  0  0
   -7.0495  -13.0905   26.4348 O   0  0  0  0  0  0  0  0  0  0  0  0
   -8.4854  -14.6922   27.8088 N   0  0  0  0  0  0  0  0  0  0  0  0
   -9.3968  -15.3245   26.8697 C   0  0  0  0  0  0  0  0  0  0  0  0
  -10.9172  -15.8251   26.8052 C   0  0  0  0  0  0  0  0  0  0  0  0
  -11.9235  -14.8652   27.1425 O   0  0  0  0  0  0  0  0  0  0  0  0
   -8.3059  -16.7111   27.8513 C   0  0  0  0  0  0  0  0  0  0  0  0
   -9.3133  -18.4947   27.9953 C   0  0  0  0  0  0  0  0  0  0  0  0
   -9.1360  -19.5758   28.7740 N   0  0  0  0  0  0  0  0  0  0  0  0
  -10.6229  -20.5899   29.4176 C   0  0  0  0  0  0  0  0  0  0  0  0
  -10.7327  -21.4059   28.4038 C   0  0  0  0  0  0  0  0  0  0  0  0
   -9.6347  -20.4065   27.7550 N   0  0  0  0  0  0  0  0  0  0  0  0
   -7.0165  -10.0572   31.0041 C   0  0  0  0  0  0  0  0  0  0  0  0
   -9.0151   -8.7600   32.4657 H   0  0  0  0  0  0  0  0  0  0  0  0
   -8.5263   -7.0906   32.1742 H   0  0  0  0  0  0  0  0  0  0  0  0
   -9.0834   -8.0951   30.8268 H   0  0  0  0  0  0  0  0  0  0  0  0
   -6.5830   -8.5749   32.5220 H   0  0  0  0  0  0  0  0  0  0  0  0
   -6.4913   -6.5279   31.0483 H   0  0  0  0  0  0  0  0  0  0  0  0
   -5.2281   -7.6946   30.8250 H   0  0  0  0  0  0  0  0  0  0  0  0
   -5.7958   -7.3695   28.6091 H   0  0  0  0  0  0  0  0  0  0  0  0
   -7.4290   -6.8892   28.9891 H   0  0  0  0  0  0  0  0  0  0  0  0
   -8.2773   -8.9866   28.8677 H   0  0  0  0  0  0  0  0  0  0  0  0
   -6.9920   -8.9744   27.6646 H   0  0  0  0  0  0  0  0  0  0  0  0
   -5.3069  -11.8266   27.9561 H   0  0  0  0  0  0  0  0  0  0  0  0
   -5.4997  -12.6266   29.4972 H   0  0  0  0  0  0  0  0  0  0  0  0
   -9.7479  -14.3031   27.0021 H   0  0  0  0  0  0  0  0  0  0  0  0
   -8.9077  -15.3459   25.8831 H   0  0  0  0  0  0  0  0  0  0  0  0
  -11.1326  -16.2183   25.8163 H   0  0  0  0  0  0  0  0  0  0  0  0
  -11.1641  -16.6849   27.3801 H   0  0  0  0  0  0  0  0  0  0  0  0
  -11.5591  -14.2890   27.8399 H   0  0  0  0  0  0  0  0  0  0  0  0
   -8.4991  -16.8383   26.8353 H   0  0  0  0  0  0  0  0  0  0  0  0
   -7.3237  -16.9367   28.1867 H   0  0  0  0  0  0  0  0  0  0  0  0
  -10.8708  -20.7503   30.4618 H   0  0  0  0  0  0  0  0  0  0  0  0
  -11.0959  -22.2932   27.9095 H   0  0  0  0  0  0  0  0  0  0  0  0
  -10.1087  -20.4345   26.9017 H   0  0  0  0  0  0  0  0  0  0  0  0
   -6.3458  -10.6329   31.6478 H   0  0  0  0  0  0  0  0  0  0  0  0
   -8.0163  -10.4167   31.2465 H   0  0  0  0  0  0  0  0  0  0  0  0
  1  2  1  0
  2  3  1  0
  3  4  1  0
  4  5  1  0
  5  6  1  0
  6  7  1  0
  7  8  1  0
  8  9  2  0
  8 10  1  0
 10 11  1  0
 11 12  1  0
 12 13  1  0
 10 14  1  0
 14 15  1  0
 15 16  2  0
 16 17  1  0
 17 18  2  0
 18 19  1  0
  6 20  1  0
 20  2  1  0
 19 15  1  0
  1 21  1  0
  1 22  1  0
  1 23  1  0
  2 24  1  0
  3 25  1  0
  3 26  1  0
  4 27  1  0
  4 28  1  0
  5 29  1  0
  5 30  1  0
  7 31  1  0
  7 32  1  0
 11 33  1  0
 11 34  1  0
 12 35  1  0
 12 36  1  0
 13 37  1  0
 14 38  1  0
 14 39  1  0
 17 40  1  0
 18 41  1  0
 19 42  1  0
 20 43  1  0
 20 44  1  0
M  END
>  <Energy>  (421) 
1148.9290183194826

>  <compound_id>  (421) 
38633

>  <target_id>  (421) 
1

>  <reference_id>  (421) 
44

>  <inspiration_ids>  (421) 
[44, 101]

>  <energy_score>  (421) 
1039.4930881720857

>  <distance_score>  (421) 
11.178612996862283

>  <path>  (421) 
/opt/xchem-fragalysis-2/maxwin/BulkDock/SCRATCH/511020/C38633-P44/C38633-P44.minimised.mol

>  <scratch_subdir>  (421) 
/opt/xchem-fragalysis-2/maxwin/BulkDock/SCRATCH/511020/C38633-P44

>  <fragmenstein_runtime>  (421) 
32.53102087974548

>  <fragmenstein_outcome>  (421) 
too moved

>  <fragmenstein_mode>  (421) 
expansion

>  <fragmenstein_error>  (421) 


$$$$
C38633-P101
     RDKit          3D

 44 45  0  0  0  0  0  0  0  0999 V2000
   -3.9081   -7.4025   23.7279 C   0  0  0  0  0  0  0  0  0  0  0  0
   -4.9125   -7.8513   22.6678 C   0  0  0  0  0  0  0  0  0  0  0  0
   -6.1480   -6.9509   22.6330 C   0  0  0  0  0  0  0  0  0  0  0  0
   -7.1608   -7.3467   23.7034 C   0  0  0  0  0  0  0  0  0  0  0  0
   -7.5000   -8.8479   23.6296 C   0  0  0  0  0  0  0  0  0  0  0  0
   -6.2983   -9.6590   23.8541 N   0  0  0  0  0  0  0  0  0  0  0  0
   -6.5467  -11.1898   24.1109 C   0  0  0  0  0  0  0  0  0  0  0  0
   -7.1247  -11.3756   25.7225 C   0  0  0  0  0  0  0  0  0  0  0  0
   -7.8204  -10.3929   26.0388 O   0  0  0  0  0  0  0  0  0  0  0  0
   -6.5818  -12.7585   26.6952 N   0  0  0  0  0  0  0  0  0  0  0  0
   -6.7511  -13.0829   28.3930 C   0  0  0  0  0  0  0  0  0  0  0  0
   -5.5332  -13.1959   29.7986 C   0  0  0  0  0  0  0  0  0  0  0  0
   -5.9704  -14.3805   30.3690 O   0  0  0  0  0  0  0  0  0  0  0  0
   -7.5533  -13.8562   26.6285 C   0  0  0  0  0  0  0  0  0  0  0  0
   -8.8562  -14.6074   27.0638 C   0  0  0  0  0  0  0  0  0  0  0  0
  -10.0552  -14.1078   27.4734 N   0  0  0  0  0  0  0  0  0  0  0  0
  -11.0751  -15.0560   27.2101 C   0  0  0  0  0  0  0  0  0  0  0  0
  -10.4732  -16.1379   26.5959 C   0  0  0  0  0  0  0  0  0  0  0  0
   -9.1015  -15.8963   26.5798 N   0  0  0  0  0  0  0  0  0  0  0  0
   -5.2950   -9.3507   22.8194 C   0  0  0  0  0  0  0  0  0  0  0  0
   -4.3663   -7.3018   24.7143 H   0  0  0  0  0  0  0  0  0  0  0  0
   -3.0731   -8.1067   23.8068 H   0  0  0  0  0  0  0  0  0  0  0  0
   -3.4801   -6.4344   23.4493 H   0  0  0  0  0  0  0  0  0  0  0  0
   -4.3991   -7.7499   21.7018 H   0  0  0  0  0  0  0  0  0  0  0  0
   -6.6282   -7.0592   21.6515 H   0  0  0  0  0  0  0  0  0  0  0  0
   -5.8726   -5.8956   22.7230 H   0  0  0  0  0  0  0  0  0  0  0  0
   -6.7763   -7.1098   24.7024 H   0  0  0  0  0  0  0  0  0  0  0  0
   -8.0775   -6.7613   23.5673 H   0  0  0  0  0  0  0  0  0  0  0  0
   -8.2858   -9.0381   24.3614 H   0  0  0  0  0  0  0  0  0  0  0  0
   -7.9370   -9.0849   22.6507 H   0  0  0  0  0  0  0  0  0  0  0  0
   -5.6088  -11.7232   24.1413 H   0  0  0  0  0  0  0  0  0  0  0  0
   -7.1076  -11.5276   23.2436 H   0  0  0  0  0  0  0  0  0  0  0  0
   -6.7900  -14.1675   28.4279 H   0  0  0  0  0  0  0  0  0  0  0  0
   -6.0135  -12.3027   28.4473 H   0  0  0  0  0  0  0  0  0  0  0  0
   -4.4566  -13.1457   29.6069 H   0  0  0  0  0  0  0  0  0  0  0  0
   -5.4319  -12.4062   30.5609 H   0  0  0  0  0  0  0  0  0  0  0  0
   -6.7249  -14.0989   30.9163 H   0  0  0  0  0  0  0  0  0  0  0  0
   -8.2290  -13.0613   26.9443 H   0  0  0  0  0  0  0  0  0  0  0  0
   -7.3848  -14.3203   25.6654 H   0  0  0  0  0  0  0  0  0  0  0  0
  -12.1159  -14.8213   27.3856 H   0  0  0  0  0  0  0  0  0  0  0  0
  -10.8650  -16.9165   25.9917 H   0  0  0  0  0  0  0  0  0  0  0  0
   -8.4383  -16.3794   26.0067 H   0  0  0  0  0  0  0  0  0  0  0  0
   -4.3616   -9.8632   23.0546 H   0  0  0  0  0  0  0  0  0  0  0  0
   -5.6505   -9.7227   21.8499 H   0  0  0  0  0  0  0  0  0  0  0  0
  1  2  1  0
  2  3  1  0
  3  4  1  0
  4  5  1  0
  5  6  1  0
  6  7  1  0
  7  8  1  0
  8  9  2  0
  8 10  1  0
 10 11  1  0
 11 12  1  0
 12 13  1  0
 10 14  1  0
 14 15  1  0
 15 16  2  0
 16 17  1  0
 17 18  2  0
 18 19  1  0
  6 20  1  0
 20  2  1  0
 19 15  1  0
  1 21  1  0
  1 22  1  0
  1 23  1  0
  2 24  1  0
  3 25  1  0
  3 26  1  0
  4 27  1  0
  4 28  1  0
  5 29  1  0
  5 30  1  0
  7 31  1  0
  7 32  1  0
 11 33  1  0
 11 34  1  0
 12 35  1  0
 12 36  1  0
 13 37  1  0
 14 38  1  0
 14 39  1  0
 17 40  1  0
 18 41  1  0
 19 42  1  0
 20 43  1  0
 20 44  1  0
M  END
>  <Energy>  (422) 
410.53186717229192

>  <compound_id>  (422) 
38633

>  <target_id>  (422) 
1

>  <reference_id>  (422) 
101

>  <inspiration_ids>  (422) 
[44, 101]

>  <energy_score>  (422) 
301.09593702488945

>  <distance_score>  (422) 
12.244115023359681

>  <path>  (422) 
/opt/xchem-fragalysis-2/maxwin/BulkDock/SCRATCH/511020/C38633-P101/C38633-P101.minimised.mol

>  <scratch_subdir>  (422) 
/opt/xchem-fragalysis-2/maxwin/BulkDock/SCRATCH/511020/C38633-P101

>  <fragmenstein_runtime>  (422) 
23.154433727264404

>  <fragmenstein_outcome>  (422) 
too moved

>  <fragmenstein_mode>  (422) 
expansion

>  <fragmenstein_error>  (422) 


$$$$
C38634-P44
     RDKit          3D

 44 45  0  0  0  0  0  0  0  0999 V2000
   -8.7375   -1.6969   26.2522 C   0  0  0  0  0  0  0  0  0  0  0  0
   -8.3054   -3.1691   26.2415 C   0  0  0  0  0  0  0  0  0  0  0  0
   -8.9905   -3.9656   25.1188 C   0  0  0  0  0  0  0  0  0  0  0  0
   -9.9034   -5.0996   25.6286 C   0  0  0  0  0  0  0  0  0  0  0  0
   -9.2022   -6.0520   26.4972 N   0  0  0  0  0  0  0  0  0  0  0  0
  -10.1161   -7.1122   27.0719 C   0  0  0  0  0  0  0  0  0  0  0  0
  -10.7752   -8.1155   26.0209 C   0  0  0  0  0  0  0  0  0  0  0  0
  -10.1019   -8.6503   25.1775 O   0  0  0  0  0  0  0  0  0  0  0  0
  -12.2116   -8.1381   26.2344 N   0  0  0  0  0  0  0  0  0  0  0  0
  -13.3162   -8.7384   25.4099 C   0  0  0  0  0  0  0  0  0  0  0  0
  -13.6335   -7.7457   24.2572 C   0  0  0  0  0  0  0  0  0  0  0  0
  -12.6413   -7.8221   23.2411 O   0  0  0  0  0  0  0  0  0  0  0  0
  -12.5991   -9.3251   27.2079 C   0  0  0  0  0  0  0  0  0  0  0  0
  -13.0906  -10.7929   26.9556 C   0  0  0  0  0  0  0  0  0  0  0  0
  -14.1454  -11.3165   27.5699 N   0  0  0  0  0  0  0  0  0  0  0  0
  -14.1730  -12.6530   27.2761 C   0  0  0  0  0  0  0  0  0  0  0  0
  -13.1206  -12.9714   26.4655 C   0  0  0  0  0  0  0  0  0  0  0  0
  -12.4617  -11.7857   26.2249 N   0  0  0  0  0  0  0  0  0  0  0  0
   -8.3929   -5.3704   27.5309 C   0  0  0  0  0  0  0  0  0  0  0  0
   -8.5344   -3.8364   27.6004 C   0  0  0  0  0  0  0  0  0  0  0  0
   -9.8290   -1.6137   26.2964 H   0  0  0  0  0  0  0  0  0  0  0  0
   -8.3367   -1.1707   27.1219 H   0  0  0  0  0  0  0  0  0  0  0  0
   -8.3963   -1.1862   25.3463 H   0  0  0  0  0  0  0  0  0  0  0  0
   -7.2319   -3.1766   26.0416 H   0  0  0  0  0  0  0  0  0  0  0  0
   -8.2202   -4.4063   24.4736 H   0  0  0  0  0  0  0  0  0  0  0  0
   -9.5752   -3.3028   24.4693 H   0  0  0  0  0  0  0  0  0  0  0  0
  -10.3016   -5.6299   24.7555 H   0  0  0  0  0  0  0  0  0  0  0  0
  -10.7626   -4.6602   26.1519 H   0  0  0  0  0  0  0  0  0  0  0  0
   -9.5312   -7.7565   27.7408 H   0  0  0  0  0  0  0  0  0  0  0  0
  -10.8997   -6.6328   27.6708 H   0  0  0  0  0  0  0  0  0  0  0  0
  -12.9778   -9.6403   24.8868 H   0  0  0  0  0  0  0  0  0  0  0  0
  -14.2795   -8.8101   25.9387 H   0  0  0  0  0  0  0  0  0  0  0  0
  -14.5916   -8.0086   23.7976 H   0  0  0  0  0  0  0  0  0  0  0  0
  -13.6867   -6.7169   24.6295 H   0  0  0  0  0  0  0  0  0  0  0  0
  -12.7472   -7.0459   22.6663 H   0  0  0  0  0  0  0  0  0  0  0  0
  -11.7189   -9.4374   27.8550 H   0  0  0  0  0  0  0  0  0  0  0  0
  -13.3463   -8.8706   27.8822 H   0  0  0  0  0  0  0  0  0  0  0  0
  -14.9390  -13.3059   27.6735 H   0  0  0  0  0  0  0  0  0  0  0  0
  -12.8109  -13.9175   26.0554 H   0  0  0  0  0  0  0  0  0  0  0  0
  -11.6284  -11.6597   25.6621 H   0  0  0  0  0  0  0  0  0  0  0  0
   -8.6062   -5.7752   28.5281 H   0  0  0  0  0  0  0  0  0  0  0  0
   -7.3424   -5.6121   27.3272 H   0  0  0  0  0  0  0  0  0  0  0  0
   -7.8221   -3.4412   28.3331 H   0  0  0  0  0  0  0  0  0  0  0  0
   -9.5356   -3.5889   27.9770 H   0  0  0  0  0  0  0  0  0  0  0  0
  1  2  1  0
  2  3  1  0
  3  4  1  0
  4  5  1  0
  5  6  1  0
  6  7  1  0
  7  8  2  0
  7  9  1  0
  9 10  1  0
 10 11  1  0
 11 12  1  0
  9 13  1  0
 13 14  1  0
 14 15  2  0
 15 16  1  0
 16 17  2  0
 17 18  1  0
  5 19  1  0
 19 20  1  0
 20  2  1  0
 18 14  1  0
  1 21  1  0
  1 22  1  0
  1 23  1  0
  2 24  1  0
  3 25  1  0
  3 26  1  0
  4 27  1  0
  4 28  1  0
  6 29  1  0
  6 30  1  0
 10 31  1  0
 10 32  1  0
 11 33  1  0
 11 34  1  0
 12 35  1  0
 13 36  1  0
 13 37  1  0
 16 38  1  0
 17 39  1  0
 18 40  1  0
 19 41  1  0
 19 42  1  0
 20 43  1  0
 20 44  1  0
M  END
>  <Energy>  (423) 
155.45785362622729

>  <compound_id>  (423) 
38634

>  <target_id>  (423) 
1

>  <reference_id>  (423) 
44

>  <inspiration_ids>  (423) 
[44, 101]

>  <energy_score>  (423) 
54.61411654980702

>  <distance_score>  (423) 
11.99984893959776

>  <path>  (423) 
/opt/xchem-fragalysis-2/maxwin/BulkDock/SCRATCH/511020/C38634-P44/C38634-P44.minimised.mol

>  <scratch_subdir>  (423) 
/opt/xchem-fragalysis-2/maxwin/BulkDock/SCRATCH/511020/C38634-P44

>  <fragmenstein_runtime>  (423) 
31.48050546646118

>  <fragmenstein_outcome>  (423) 
too moved

>  <fragmenstein_mode>  (423) 
expansion

>  <fragmenstein_error>  (423) 


$$$$
C38634-P101
     RDKit          3D

 44 45  0  0  0  0  0  0  0  0999 V2000
   -1.1818   -5.0177   22.3134 C   0  0  0  0  0  0  0  0  0  0  0  0
   -1.8070   -6.3106   22.8544 C   0  0  0  0  0  0  0  0  0  0  0  0
   -3.1895   -6.4977   22.2805 C   0  0  0  0  0  0  0  0  0  0  0  0
   -3.8562   -7.7835   22.8155 C   0  0  0  0  0  0  0  0  0  0  0  0
   -2.9859   -8.9766   23.3642 N   0  0  0  0  0  0  0  0  0  0  0  0
   -4.0396  -10.4535   23.2743 C   0  0  0  0  0  0  0  0  0  0  0  0
   -4.0107  -12.3089   24.2668 C   0  0  0  0  0  0  0  0  0  0  0  0
   -3.3488  -12.2133   25.3076 O   0  0  0  0  0  0  0  0  0  0  0  0
   -4.6779  -14.0107   23.5529 N   0  0  0  0  0  0  0  0  0  0  0  0
   -4.4145  -15.3323   24.0001 C   0  0  0  0  0  0  0  0  0  0  0  0
   -2.8149  -15.6152   24.8560 C   0  0  0  0  0  0  0  0  0  0  0  0
   -2.7089  -16.9239   25.3906 O   0  0  0  0  0  0  0  0  0  0  0  0
   -6.4514  -14.9974   23.8758 C   0  0  0  0  0  0  0  0  0  0  0  0
   -7.1376  -16.8981   23.2345 C   0  0  0  0  0  0  0  0  0  0  0  0
   -7.7712  -17.0648   21.9780 N   0  0  0  0  0  0  0  0  0  0  0  0
   -7.8047  -18.3455   21.4719 C   0  0  0  0  0  0  0  0  0  0  0  0
   -7.1847  -19.1460   22.3497 C   0  0  0  0  0  0  0  0  0  0  0  0
   -6.5232  -18.2433   23.1615 N   0  0  0  0  0  0  0  0  0  0  0  0
   -1.8791   -8.8746   22.3256 C   0  0  0  0  0  0  0  0  0  0  0  0
   -1.0062   -7.5742   22.4999 C   0  0  0  0  0  0  0  0  0  0  0  0
   -1.7308   -4.1399   22.6668 H   0  0  0  0  0  0  0  0  0  0  0  0
   -0.1354   -4.9370   22.6151 H   0  0  0  0  0  0  0  0  0  0  0  0
   -1.2024   -5.0022   21.2178 H   0  0  0  0  0  0  0  0  0  0  0  0
   -1.8758   -6.2342   23.9471 H   0  0  0  0  0  0  0  0  0  0  0  0
   -3.8246   -5.6318   22.5037 H   0  0  0  0  0  0  0  0  0  0  0  0
   -3.1323   -6.5562   21.1846 H   0  0  0  0  0  0  0  0  0  0  0  0
   -4.4658   -8.1547   21.9806 H   0  0  0  0  0  0  0  0  0  0  0  0
   -4.5339   -7.3839   23.5622 H   0  0  0  0  0  0  0  0  0  0  0  0
   -3.3995  -10.5628   22.3111 H   0  0  0  0  0  0  0  0  0  0  0  0
   -4.7590  -10.2673   22.3528 H   0  0  0  0  0  0  0  0  0  0  0  0
   -4.3526  -15.6161   22.9572 H   0  0  0  0  0  0  0  0  0  0  0  0
   -3.4715  -15.1449   23.5032 H   0  0  0  0  0  0  0  0  0  0  0  0
   -2.4829  -14.8257   25.5651 H   0  0  0  0  0  0  0  0  0  0  0  0
   -1.9454  -15.4455   24.2217 H   0  0  0  0  0  0  0  0  0  0  0  0
   -2.8892  -17.0659   26.3385 H   0  0  0  0  0  0  0  0  0  0  0  0
   -7.1006  -14.8444   24.8288 H   0  0  0  0  0  0  0  0  0  0  0  0
   -6.6403  -14.0769   23.4490 H   0  0  0  0  0  0  0  0  0  0  0  0
   -8.3111  -18.5837   20.5479 H   0  0  0  0  0  0  0  0  0  0  0  0
   -7.0019  -20.2096   22.3716 H   0  0  0  0  0  0  0  0  0  0  0  0
   -5.8243  -18.5599   23.7823 H   0  0  0  0  0  0  0  0  0  0  0  0
   -1.1935   -9.7246   22.3247 H   0  0  0  0  0  0  0  0  0  0  0  0
   -2.3091   -8.8831   21.3126 H   0  0  0  0  0  0  0  0  0  0  0  0
   -0.4624   -7.4229   21.5584 H   0  0  0  0  0  0  0  0  0  0  0  0
   -0.2400   -7.7271   23.2681 H   0  0  0  0  0  0  0  0  0  0  0  0
  1  2  1  0
  2  3  1  0
  3  4  1  0
  4  5  1  0
  5  6  1  0
  6  7  1  0
  7  8  2  0
  7  9  1  0
  9 10  1  0
 10 11  1  0
 11 12  1  0
  9 13  1  0
 13 14  1  0
 14 15  2  0
 15 16  1  0
 16 17  2  0
 17 18  1  0
  5 19  1  0
 19 20  1  0
 20  2  1  0
 18 14  1  0
  1 21  1  0
  1 22  1  0
  1 23  1  0
  2 24  1  0
  3 25  1  0
  3 26  1  0
  4 27  1  0
  4 28  1  0
  6 29  1  0
  6 30  1  0
 10 31  1  0
 10 32  1  0
 11 33  1  0
 11 34  1  0
 12 35  1  0
 13 36  1  0
 13 37  1  0
 16 38  1  0
 17 39  1  0
 18 40  1  0
 19 41  1  0
 19 42  1  0
 20 43  1  0
 20 44  1  0
M  END
>  <Energy>  (424) 
850.61148234946143

>  <compound_id>  (424) 
38634

>  <target_id>  (424) 
1

>  <reference_id>  (424) 
101

>  <inspiration_ids>  (424) 
[44, 101]

>  <energy_score>  (424) 
749.7677452730422

>  <distance_score>  (424) 
11.30410118791774

>  <path>  (424) 
/opt/xchem-fragalysis-2/maxwin/BulkDock/SCRATCH/511020/C38634-P101/C38634-P101.minimised.mol

>  <scratch_subdir>  (424) 
/opt/xchem-fragalysis-2/maxwin/BulkDock/SCRATCH/511020/C38634-P101

>  <fragmenstein_runtime>  (424) 
38.36746668815613

>  <fragmenstein_outcome>  (424) 
too moved

>  <fragmenstein_mode>  (424) 
expansion

>  <fragmenstein_error>  (424) 


$$$$
C47090-P97
     RDKit          3D

 33 35  0  0  0  0  0  0  0  0999 V2000
    7.0811   -6.1701   24.4762 C   0  0  0  0  0  0  0  0  0  0  0  0
    6.6923   -5.0339   25.1845 C   0  0  0  0  0  0  0  0  0  0  0  0
    5.7926   -4.0378   24.6924 C   0  0  0  0  0  0  0  0  0  0  0  0
    5.3117   -3.0569   25.6361 N   0  0  0  0  0  0  0  0  0  0  0  0
    4.3759   -2.0111   25.2105 C   0  0  0  0  0  0  0  0  0  0  0  0
    4.5129   -0.7222   26.0459 C   0  0  0  0  0  0  0  0  0  0  0  0
    3.6311   -0.6686   27.2798 C   0  0  0  0  0  0  0  0  0  0  0  0
    4.0803   -1.5782   28.3197 N   0  0  0  0  0  0  0  0  0  0  0  0
    3.9864   -2.9750   27.8793 C   0  0  0  0  0  0  0  0  0  0  0  0
    5.1690   -3.5272   27.0423 C   0  0  0  0  0  0  0  0  0  0  0  0
    5.5267   -4.1691   23.2764 C   0  0  0  0  0  0  0  0  0  0  0  0
    4.8191   -3.4161   22.2844 C   0  0  0  0  0  0  0  0  0  0  0  0
    4.9011   -4.0506   21.0662 C   0  0  0  0  0  0  0  0  0  0  0  0
    5.6029   -5.1948   21.2531 N   0  0  0  0  0  0  0  0  0  0  0  0
    5.9772   -5.3048   22.5740 C   0  0  0  0  0  0  0  0  0  0  0  0
    6.6544   -6.3600   23.1781 C   0  0  0  0  0  0  0  0  0  0  0  0
    7.6949   -6.9226   24.9651 H   0  0  0  0  0  0  0  0  0  0  0  0
    7.0761   -4.9531   26.1998 H   0  0  0  0  0  0  0  0  0  0  0  0
    3.3513   -2.3874   25.2060 H   0  0  0  0  0  0  0  0  0  0  0  0
    4.6099   -1.7230   24.1960 H   0  0  0  0  0  0  0  0  0  0  0  0
    4.2160    0.1306   25.4324 H   0  0  0  0  0  0  0  0  0  0  0  0
    5.5617   -0.5507   26.3211 H   0  0  0  0  0  0  0  0  0  0  0  0
    2.5821   -0.8580   27.0220 H   0  0  0  0  0  0  0  0  0  0  0  0
    3.6628    0.3476   27.6900 H   0  0  0  0  0  0  0  0  0  0  0  0
    5.0505   -1.3703   28.5578 H   0  0  0  0  0  0  0  0  0  0  0  0
    3.9576   -3.5709   28.8006 H   0  0  0  0  0  0  0  0  0  0  0  0
    3.0282   -3.1733   27.3829 H   0  0  0  0  0  0  0  0  0  0  0  0
    6.1066   -3.3162   27.5717 H   0  0  0  0  0  0  0  0  0  0  0  0
    5.0230   -4.6154   27.0586 H   0  0  0  0  0  0  0  0  0  0  0  0
    4.2865   -2.4907   22.4288 H   0  0  0  0  0  0  0  0  0  0  0  0
    4.5063   -3.7870   20.0968 H   0  0  0  0  0  0  0  0  0  0  0  0
    5.8014   -5.8868   20.5433 H   0  0  0  0  0  0  0  0  0  0  0  0
    6.8832   -7.2788   22.6489 H   0  0  0  0  0  0  0  0  0  0  0  0
  1  2  2  0
  2  3  1  0
  3  4  1  0
  4  5  1  0
  5  6  1  0
  6  7  1  0
  7  8  1  0
  8  9  1  0
  9 10  1  0
  3 11  2  0
 11 12  1  0
 12 13  2  0
 13 14  1  0
 14 15  1  0
 15 16  2  0
 16  1  1  0
 10  4  1  0
 15 11  1  0
  1 17  1  0
  2 18  1  0
  5 19  1  0
  5 20  1  0
  6 21  1  0
  6 22  1  0
  7 23  1  0
  7 24  1  0
  8 25  1  0
  9 26  1  0
  9 27  1  0
 10 28  1  0
 10 29  1  0
 12 30  1  0
 13 31  1  0
 14 32  1  0
 16 33  1  0
M  END
>  <Energy>  (425) 
73.033966136514735

>  <compound_id>  (425) 
47090

>  <target_id>  (425) 
1

>  <reference_id>  (425) 
97

>  <inspiration_ids>  (425) 
[97, 53]

>  <energy_score>  (425) 
-20.204352419722028

>  <distance_score>  (425) 
9.676908274732726

>  <path>  (425) 
/opt/xchem-fragalysis-2/maxwin/BulkDock/SCRATCH/511020/C47090-P97/C47090-P97.minimised.mol

>  <scratch_subdir>  (425) 
/opt/xchem-fragalysis-2/maxwin/BulkDock/SCRATCH/511020/C47090-P97

>  <fragmenstein_runtime>  (425) 
3.6718595027923584

>  <fragmenstein_outcome>  (425) 
too moved

>  <fragmenstein_mode>  (425) 
expansion

>  <fragmenstein_error>  (425) 


$$$$
C47090-P53
     RDKit          3D

 33 35  0  0  0  0  0  0  0  0999 V2000
    8.4687    0.5660   17.9438 C   0  0  0  0  0  0  0  0  0  0  0  0
    8.4577    1.7308   18.7141 C   0  0  0  0  0  0  0  0  0  0  0  0
    8.8340    3.0171   18.2638 C   0  0  0  0  0  0  0  0  0  0  0  0
    8.5697    4.1944   19.2190 N   0  0  0  0  0  0  0  0  0  0  0  0
    7.3932    5.1179   18.9358 C   0  0  0  0  0  0  0  0  0  0  0  0
    6.2612    5.3602   20.0199 C   0  0  0  0  0  0  0  0  0  0  0  0
    6.5209    6.1621   21.2983 C   0  0  0  0  0  0  0  0  0  0  0  0
    7.3024    5.4377   22.2924 N   0  0  0  0  0  0  0  0  0  0  0  0
    8.5982    5.0067   21.7193 C   0  0  0  0  0  0  0  0  0  0  0  0
    8.5765    3.8323   20.6720 C   0  0  0  0  0  0  0  0  0  0  0  0
    9.4569    2.9209   16.9233 C   0  0  0  0  0  0  0  0  0  0  0  0
   10.1627    3.8312   16.0540 C   0  0  0  0  0  0  0  0  0  0  0  0
   10.6347    3.1680   14.9335 C   0  0  0  0  0  0  0  0  0  0  0  0
   10.2054    1.8798   15.0141 N   0  0  0  0  0  0  0  0  0  0  0  0
    9.5329    1.6904   16.2050 C   0  0  0  0  0  0  0  0  0  0  0  0
    8.9767    0.5086   16.6556 C   0  0  0  0  0  0  0  0  0  0  0  0
    7.9614   -0.2605   18.4211 H   0  0  0  0  0  0  0  0  0  0  0  0
    8.0275    1.6099   19.6991 H   0  0  0  0  0  0  0  0  0  0  0  0
    7.8250    6.0947   18.6869 H   0  0  0  0  0  0  0  0  0  0  0  0
    6.9015    4.7615   18.0222 H   0  0  0  0  0  0  0  0  0  0  0  0
    5.4509    5.8764   19.4874 H   0  0  0  0  0  0  0  0  0  0  0  0
    5.8595    4.4124   20.3263 H   0  0  0  0  0  0  0  0  0  0  0  0
    5.5563    6.4149   21.7534 H   0  0  0  0  0  0  0  0  0  0  0  0
    7.0085    7.1111   21.0454 H   0  0  0  0  0  0  0  0  0  0  0  0
    7.4930    6.0668   23.0744 H   0  0  0  0  0  0  0  0  0  0  0  0
    9.1414    5.8664   21.3074 H   0  0  0  0  0  0  0  0  0  0  0  0
    9.1931    4.6544   22.5712 H   0  0  0  0  0  0  0  0  0  0  0  0
    7.6806    3.2360   20.8181 H   0  0  0  0  0  0  0  0  0  0  0  0
    9.4638    3.2156   20.8639 H   0  0  0  0  0  0  0  0  0  0  0  0
   10.3395    4.8733   16.2841 H   0  0  0  0  0  0  0  0  0  0  0  0
   11.2096    3.5205   14.0892 H   0  0  0  0  0  0  0  0  0  0  0  0
   10.3475    1.1603   14.3168 H   0  0  0  0  0  0  0  0  0  0  0  0
    8.9415   -0.3792   16.0375 H   0  0  0  0  0  0  0  0  0  0  0  0
  1  2  2  0
  2  3  1  0
  3  4  1  0
  4  5  1  0
  5  6  1  0
  6  7  1  0
  7  8  1  0
  8  9  1  0
  9 10  1  0
  3 11  2  0
 11 12  1  0
 12 13  2  0
 13 14  1  0
 14 15  1  0
 15 16  2  0
 16  1  1  0
 10  4  1  0
 15 11  1  0
  1 17  1  0
  2 18  1  0
  5 19  1  0
  5 20  1  0
  6 21  1  0
  6 22  1  0
  7 23  1  0
  7 24  1  0
  8 25  1  0
  9 26  1  0
  9 27  1  0
 10 28  1  0
 10 29  1  0
 12 30  1  0
 13 31  1  0
 14 32  1  0
 16 33  1  0
M  END
>  <Energy>  (426) 
98.903382373687933

>  <compound_id>  (426) 
47090

>  <target_id>  (426) 
1

>  <reference_id>  (426) 
53

>  <inspiration_ids>  (426) 
[97, 53]

>  <energy_score>  (426) 
10.190460306334899

>  <distance_score>  (426) 
6.767424152497517

>  <path>  (426) 
/opt/xchem-fragalysis-2/maxwin/BulkDock/SCRATCH/511020/C47090-P53/C47090-P53.minimised.mol

>  <scratch_subdir>  (426) 
/opt/xchem-fragalysis-2/maxwin/BulkDock/SCRATCH/511020/C47090-P53

>  <fragmenstein_runtime>  (426) 
2.437363386154175

>  <fragmenstein_outcome>  (426) 
too moved

>  <fragmenstein_mode>  (426) 
expansion

>  <fragmenstein_error>  (426) 


$$$$
C47121-P97
     RDKit          3D

 34 36  0  0  0  0  0  0  0  0999 V2000
   11.2218    0.4372   15.5632 C   0  0  0  0  0  0  0  0  0  0  0  0
    9.9136    0.8297   15.8114 C   0  0  0  0  0  0  0  0  0  0  0  0
    9.6045    1.9912   16.5821 C   0  0  0  0  0  0  0  0  0  0  0  0
   10.6291    2.7628   17.2105 C   0  0  0  0  0  0  0  0  0  0  0  0
   11.9657    2.3789   16.8631 C   0  0  0  0  0  0  0  0  0  0  0  0
   12.2511    1.2345   16.0519 C   0  0  0  0  0  0  0  0  0  0  0  0
   12.8248    3.2976   17.4821 C   0  0  0  0  0  0  0  0  0  0  0  0
   12.0626    4.1561   18.2379 C   0  0  0  0  0  0  0  0  0  0  0  0
   10.6856    3.8446   18.2056 N   0  0  0  0  0  0  0  0  0  0  0  0
    9.7195    4.6741   19.3046 C   0  0  0  0  0  0  0  0  0  0  0  0
    8.1457    5.0724   19.1555 C   0  0  0  0  0  0  0  0  0  0  0  0
    7.0646    4.8529   20.3051 C   0  0  0  0  0  0  0  0  0  0  0  0
    7.2362    5.5081   21.6795 C   0  0  0  0  0  0  0  0  0  0  0  0
    8.0424    4.7332   22.6129 N   0  0  0  0  0  0  0  0  0  0  0  0
    9.0972    3.9303   21.9771 C   0  0  0  0  0  0  0  0  0  0  0  0
   10.0648    4.5589   20.9006 C   0  0  0  0  0  0  0  0  0  0  0  0
   11.4311   -0.4322   14.9462 H   0  0  0  0  0  0  0  0  0  0  0  0
    9.0943    0.2619   15.3710 H   0  0  0  0  0  0  0  0  0  0  0  0
    8.5605    2.2651   16.7284 H   0  0  0  0  0  0  0  0  0  0  0  0
   13.2848    0.9809   15.8320 H   0  0  0  0  0  0  0  0  0  0  0  0
   13.9041    3.3245   17.4126 H   0  0  0  0  0  0  0  0  0  0  0  0
   12.3845    4.9740   18.8689 H   0  0  0  0  0  0  0  0  0  0  0  0
   10.1876    5.6391   19.0353 H   0  0  0  0  0  0  0  0  0  0  0  0
    8.1290    6.1514   18.9448 H   0  0  0  0  0  0  0  0  0  0  0  0
    7.7687    4.6020   18.2381 H   0  0  0  0  0  0  0  0  0  0  0  0
    6.1145    5.2148   19.8903 H   0  0  0  0  0  0  0  0  0  0  0  0
    6.9458    3.7819   20.4561 H   0  0  0  0  0  0  0  0  0  0  0  0
    6.2508    5.6527   22.1361 H   0  0  0  0  0  0  0  0  0  0  0  0
    7.6759    6.5033   21.5462 H   0  0  0  0  0  0  0  0  0  0  0  0
    8.4542    5.3646   23.2999 H   0  0  0  0  0  0  0  0  0  0  0  0
    9.7426    3.6035   22.8037 H   0  0  0  0  0  0  0  0  0  0  0  0
    8.6703    2.9998   21.5989 H   0  0  0  0  0  0  0  0  0  0  0  0
   10.2790    5.5828   21.2396 H   0  0  0  0  0  0  0  0  0  0  0  0
   11.0245    4.0351   20.9805 H   0  0  0  0  0  0  0  0  0  0  0  0
  1  2  2  0
  2  3  1  0
  3  4  2  0
  4  5  1  0
  5  6  2  0
  5  7  1  0
  7  8  2  0
  8  9  1  0
  9 10  1  0
 10 11  1  0
 11 12  1  0
 12 13  1  0
 13 14  1  0
 14 15  1  0
 15 16  1  0
  6  1  1  0
 16 10  1  0
  9  4  1  0
  1 17  1  0
  2 18  1  0
  3 19  1  0
  6 20  1  0
  7 21  1  0
  8 22  1  0
 10 23  1  0
 11 24  1  0
 11 25  1  0
 12 26  1  0
 12 27  1  0
 13 28  1  0
 13 29  1  0
 14 30  1  0
 15 31  1  0
 15 32  1  0
 16 33  1  0
 16 34  1  0
M  END
>  <Energy>  (427) 
102.13379262776557

>  <compound_id>  (427) 
47121

>  <target_id>  (427) 
1

>  <reference_id>  (427) 
97

>  <inspiration_ids>  (427) 
[97, 53]

>  <energy_score>  (427) 
27.317779178835565

>  <distance_score>  (427) 
6.3144043418811515

>  <path>  (427) 
/opt/xchem-fragalysis-2/maxwin/BulkDock/SCRATCH/511020/C47121-P97/C47121-P97.minimised.mol

>  <scratch_subdir>  (427) 
/opt/xchem-fragalysis-2/maxwin/BulkDock/SCRATCH/511020/C47121-P97

>  <fragmenstein_runtime>  (427) 
1.9749248027801514

>  <fragmenstein_outcome>  (427) 
too moved

>  <fragmenstein_mode>  (427) 
expansion

>  <fragmenstein_error>  (427) 


$$$$
C47121-P53
     RDKit          3D

 34 36  0  0  0  0  0  0  0  0999 V2000
   10.4752   -0.2838   14.9912 C   0  0  0  0  0  0  0  0  0  0  0  0
    9.3633   -0.4674   15.7887 C   0  0  0  0  0  0  0  0  0  0  0  0
    8.8652    0.5407   16.6627 C   0  0  0  0  0  0  0  0  0  0  0  0
    9.3915    1.8433   16.6067 C   0  0  0  0  0  0  0  0  0  0  0  0
   10.4042    2.0650   15.6357 C   0  0  0  0  0  0  0  0  0  0  0  0
   10.9991    0.9945   14.9063 C   0  0  0  0  0  0  0  0  0  0  0  0
   10.6164    3.4596   15.6006 C   0  0  0  0  0  0  0  0  0  0  0  0
    9.8263    4.0465   16.5713 C   0  0  0  0  0  0  0  0  0  0  0  0
    9.1186    3.0886   17.2974 N   0  0  0  0  0  0  0  0  0  0  0  0
    8.1775    3.4737   18.5256 C   0  0  0  0  0  0  0  0  0  0  0  0
    7.4209    4.9035   18.5219 C   0  0  0  0  0  0  0  0  0  0  0  0
    6.3686    5.3809   19.6175 C   0  0  0  0  0  0  0  0  0  0  0  0
    6.8434    5.8691   20.9805 C   0  0  0  0  0  0  0  0  0  0  0  0
    7.5968    4.8790   21.7181 N   0  0  0  0  0  0  0  0  0  0  0  0
    8.8142    4.4407   21.0186 C   0  0  0  0  0  0  0  0  0  0  0  0
    8.7515    3.2660   19.9789 C   0  0  0  0  0  0  0  0  0  0  0  0
   10.8447   -1.0776   14.3490 H   0  0  0  0  0  0  0  0  0  0  0  0
    8.8314   -1.4031   15.6856 H   0  0  0  0  0  0  0  0  0  0  0  0
    8.0286    0.3384   17.3197 H   0  0  0  0  0  0  0  0  0  0  0  0
   11.8028    1.2055   14.2067 H   0  0  0  0  0  0  0  0  0  0  0  0
   11.2951    3.9942   14.9515 H   0  0  0  0  0  0  0  0  0  0  0  0
    9.7479    5.0868   16.8503 H   0  0  0  0  0  0  0  0  0  0  0  0
    7.4265    2.7023   18.3682 H   0  0  0  0  0  0  0  0  0  0  0  0
    6.8952    4.9458   17.5577 H   0  0  0  0  0  0  0  0  0  0  0  0
    8.1904    5.6840   18.4620 H   0  0  0  0  0  0  0  0  0  0  0  0
    5.5742    4.6678   19.7719 H   0  0  0  0  0  0  0  0  0  0  0  0
    5.8601    6.2412   19.1575 H   0  0  0  0  0  0  0  0  0  0  0  0
    7.4460    6.7769   20.8518 H   0  0  0  0  0  0  0  0  0  0  0  0
    5.9696    6.1646   21.5730 H   0  0  0  0  0  0  0  0  0  0  0  0
    7.8846    5.3039   22.6031 H   0  0  0  0  0  0  0  0  0  0  0  0
    9.3354    5.2968   20.5708 H   0  0  0  0  0  0  0  0  0  0  0  0
    9.4985    4.0923   21.8044 H   0  0  0  0  0  0  0  0  0  0  0  0
    8.1927    2.4354   20.4182 H   0  0  0  0  0  0  0  0  0  0  0  0
    9.7783    2.8968   19.8703 H   0  0  0  0  0  0  0  0  0  0  0  0
  1  2  2  0
  2  3  1  0
  3  4  2  0
  4  5  1  0
  5  6  2  0
  5  7  1  0
  7  8  2  0
  8  9  1  0
  9 10  1  0
 10 11  1  0
 11 12  1  0
 12 13  1  0
 13 14  1  0
 14 15  1  0
 15 16  1  0
  6  1  1  0
 16 10  1  0
  9  4  1  0
  1 17  1  0
  2 18  1  0
  3 19  1  0
  6 20  1  0
  7 21  1  0
  8 22  1  0
 10 23  1  0
 11 24  1  0
 11 25  1  0
 12 26  1  0
 12 27  1  0
 13 28  1  0
 13 29  1  0
 14 30  1  0
 15 31  1  0
 15 32  1  0
 16 33  1  0
 16 34  1  0
M  END
>  <Energy>  (428) 
62.094347508552829

>  <compound_id>  (428) 
47121

>  <target_id>  (428) 
1

>  <reference_id>  (428) 
53

>  <inspiration_ids>  (428) 
[97, 53]

>  <energy_score>  (428) 
-12.721665940378273

>  <distance_score>  (428) 
6.661497816370645

>  <path>  (428) 
/opt/xchem-fragalysis-2/maxwin/BulkDock/SCRATCH/511020/C47121-P53/C47121-P53.minimised.mol

>  <scratch_subdir>  (428) 
/opt/xchem-fragalysis-2/maxwin/BulkDock/SCRATCH/511020/C47121-P53

>  <fragmenstein_runtime>  (428) 
1.7740156650543213

>  <fragmenstein_outcome>  (428) 
too moved

>  <fragmenstein_mode>  (428) 
expansion

>  <fragmenstein_error>  (428) 


$$$$
C66549-P97
     RDKit          3D

 45 47  0  0  0  0  0  0  0  0999 V2000
    8.2925    7.5941   18.2674 C   0  0  0  0  0  0  0  0  0  0  0  0
    8.9983    6.9320   19.4590 C   0  0  0  0  0  0  0  0  0  0  0  0
    8.8754    5.4162   19.3210 N   0  0  0  0  0  0  0  0  0  0  0  0
   10.1663    4.8428   18.9615 C   0  0  0  0  0  0  0  0  0  0  0  0
   11.0576    4.4235   19.6573 O   0  0  0  0  0  0  0  0  0  0  0  0
   10.2470    4.7148   17.3989 C   0  0  0  0  0  0  0  0  0  0  0  0
   11.2441    3.7667   16.8940 N   0  0  0  0  0  0  0  0  0  0  0  0
   12.6062    4.0816   16.8389 C   0  0  0  0  0  0  0  0  0  0  0  0
   13.1284    5.1428   17.1485 O   0  0  0  0  0  0  0  0  0  0  0  0
   13.3475    2.8624   16.2840 C   0  0  0  0  0  0  0  0  0  0  0  0
   12.2309    1.9170   15.9697 C   0  0  0  0  0  0  0  0  0  0  0  0
   12.3069    0.6525   15.4031 C   0  0  0  0  0  0  0  0  0  0  0  0
   11.1144   -0.0357   15.1820 C   0  0  0  0  0  0  0  0  0  0  0  0
    9.8826    0.5467   15.5278 C   0  0  0  0  0  0  0  0  0  0  0  0
    9.8217    1.8225   16.1109 C   0  0  0  0  0  0  0  0  0  0  0  0
   11.0085    2.4965   16.3340 C   0  0  0  0  0  0  0  0  0  0  0  0
    8.1889    5.5619   20.6937 C   0  0  0  0  0  0  0  0  0  0  0  0
    9.0291    5.7467   21.9898 C   0  0  0  0  0  0  0  0  0  0  0  0
    8.1567    6.2054   23.1661 C   0  0  0  0  0  0  0  0  0  0  0  0
    6.9097    5.4543   23.2389 N   0  0  0  0  0  0  0  0  0  0  0  0
    6.0350    5.6836   22.0892 C   0  0  0  0  0  0  0  0  0  0  0  0
    6.7356    6.1174   20.7898 C   0  0  0  0  0  0  0  0  0  0  0  0
    7.2167    7.3961   18.2810 H   0  0  0  0  0  0  0  0  0  0  0  0
    8.4416    8.6782   18.2964 H   0  0  0  0  0  0  0  0  0  0  0  0
    8.6859    7.2266   17.3151 H   0  0  0  0  0  0  0  0  0  0  0  0
    8.7352    7.5082   20.3587 H   0  0  0  0  0  0  0  0  0  0  0  0
   10.0683    7.1645   19.3369 H   0  0  0  0  0  0  0  0  0  0  0  0
   10.5198    5.7058   17.0186 H   0  0  0  0  0  0  0  0  0  0  0  0
    9.2615    4.4539   17.0014 H   0  0  0  0  0  0  0  0  0  0  0  0
   14.0110    2.4562   17.0515 H   0  0  0  0  0  0  0  0  0  0  0  0
   13.8920    3.1465   15.3799 H   0  0  0  0  0  0  0  0  0  0  0  0
   13.2600    0.2145   15.1243 H   0  0  0  0  0  0  0  0  0  0  0  0
   11.1312   -1.0181   14.7122 H   0  0  0  0  0  0  0  0  0  0  0  0
    8.9635    0.0046   15.3198 H   0  0  0  0  0  0  0  0  0  0  0  0
    8.8617    2.2559   16.3742 H   0  0  0  0  0  0  0  0  0  0  0  0
    7.9616    4.4853   20.7961 H   0  0  0  0  0  0  0  0  0  0  0  0
    9.8535    6.4561   21.8572 H   0  0  0  0  0  0  0  0  0  0  0  0
    9.5073    4.7894   22.2390 H   0  0  0  0  0  0  0  0  0  0  0  0
    7.9485    7.2798   23.0906 H   0  0  0  0  0  0  0  0  0  0  0  0
    8.7182    6.0601   24.0958 H   0  0  0  0  0  0  0  0  0  0  0  0
    6.4124    5.6758   24.1013 H   0  0  0  0  0  0  0  0  0  0  0  0
    5.2834    6.4397   22.3466 H   0  0  0  0  0  0  0  0  0  0  0  0
    5.4855    4.7592   21.9009 H   0  0  0  0  0  0  0  0  0  0  0  0
    6.1479    5.7751   19.9292 H   0  0  0  0  0  0  0  0  0  0  0  0
    6.7291    7.2130   20.7565 H   0  0  0  0  0  0  0  0  0  0  0  0
  1  2  1  0
  2  3  1  0
  3  4  1  0
  4  5  2  0
  4  6  1  0
  6  7  1  0
  7  8  1  0
  8  9  2  0
  8 10  1  0
 10 11  1  0
 11 12  2  0
 12 13  1  0
 13 14  2  0
 14 15  1  0
 15 16  2  0
  3 17  1  0
 17 18  1  0
 18 19  1  0
 19 20  1  0
 20 21  1  0
 21 22  1  0
 16  7  1  0
 22 17  1  0
 16 11  1  0
  1 23  1  0
  1 24  1  0
  1 25  1  0
  2 26  1  0
  2 27  1  0
  6 28  1  0
  6 29  1  0
 10 30  1  0
 10 31  1  0
 12 32  1  0
 13 33  1  0
 14 34  1  0
 15 35  1  0
 17 36  1  0
 18 37  1  0
 18 38  1  0
 19 39  1  0
 19 40  1  0
 20 41  1  0
 21 42  1  0
 21 43  1  0
 22 44  1  0
 22 45  1  0
M  END
>  <Energy>  (429) 
122.12644087882214

>  <compound_id>  (429) 
66549

>  <target_id>  (429) 
1

>  <reference_id>  (429) 
97

>  <inspiration_ids>  (429) 
[97, 53]

>  <energy_score>  (429) 
50.75050352213816

>  <distance_score>  (429) 
5.478052301538193

>  <path>  (429) 
/opt/xchem-fragalysis-2/maxwin/BulkDock/SCRATCH/511020/C66549-P97/C66549-P97.minimised.mol

>  <scratch_subdir>  (429) 
/opt/xchem-fragalysis-2/maxwin/BulkDock/SCRATCH/511020/C66549-P97

>  <fragmenstein_runtime>  (429) 
5.662081718444824

>  <fragmenstein_outcome>  (429) 
too moved

>  <fragmenstein_mode>  (429) 
expansion

>  <fragmenstein_error>  (429) 


$$$$
C66549-P53
     RDKit          3D

 45 47  0  0  0  0  0  0  0  0999 V2000
    8.2193    6.8651   17.1035 C   0  0  0  0  0  0  0  0  0  0  0  0
    8.5405    6.0220   18.3488 C   0  0  0  0  0  0  0  0  0  0  0  0
    7.6753    4.7499   18.3295 N   0  0  0  0  0  0  0  0  0  0  0  0
    8.4730    3.6117   17.9038 C   0  0  0  0  0  0  0  0  0  0  0  0
    9.1163    2.8230   18.5487 O   0  0  0  0  0  0  0  0  0  0  0  0
    8.3290    3.4042   16.3613 C   0  0  0  0  0  0  0  0  0  0  0  0
    9.5241    2.9230   15.6756 N   0  0  0  0  0  0  0  0  0  0  0  0
   10.5262    3.7799   15.2170 C   0  0  0  0  0  0  0  0  0  0  0  0
   10.5625    4.9983   15.3157 O   0  0  0  0  0  0  0  0  0  0  0  0
   11.5807    2.9276   14.5078 C   0  0  0  0  0  0  0  0  0  0  0  0
   11.0670    1.5375   14.7077 C   0  0  0  0  0  0  0  0  0  0  0  0
   11.6368    0.3383   14.3122 C   0  0  0  0  0  0  0  0  0  0  0  0
   10.9103   -0.8281   14.5378 C   0  0  0  0  0  0  0  0  0  0  0  0
    9.6388   -0.7680   15.1332 C   0  0  0  0  0  0  0  0  0  0  0  0
    9.1035    0.4411   15.5897 C   0  0  0  0  0  0  0  0  0  0  0  0
    9.8327    1.5893   15.3660 C   0  0  0  0  0  0  0  0  0  0  0  0
    7.3038    5.2407   19.7391 C   0  0  0  0  0  0  0  0  0  0  0  0
    8.3198    5.2455   20.9261 C   0  0  0  0  0  0  0  0  0  0  0  0
    7.8287    6.1343   22.0759 C   0  0  0  0  0  0  0  0  0  0  0  0
    6.4176    5.9206   22.3644 N   0  0  0  0  0  0  0  0  0  0  0  0
    5.5234    6.2689   21.2580 C   0  0  0  0  0  0  0  0  0  0  0  0
    6.1733    6.2955   19.8645 C   0  0  0  0  0  0  0  0  0  0  0  0
    8.7998    7.7937   17.1218 H   0  0  0  0  0  0  0  0  0  0  0  0
    8.4670    6.3507   16.1751 H   0  0  0  0  0  0  0  0  0  0  0  0
    7.1569    7.1268   17.0733 H   0  0  0  0  0  0  0  0  0  0  0  0
    9.5921    5.7085   18.2678 H   0  0  0  0  0  0  0  0  0  0  0  0
    8.5173    6.7709   19.1540 H   0  0  0  0  0  0  0  0  0  0  0  0
    8.0347    4.3415   15.8862 H   0  0  0  0  0  0  0  0  0  0  0  0
    7.5088    2.7092   16.1827 H   0  0  0  0  0  0  0  0  0  0  0  0
   12.5567    3.0840   14.9655 H   0  0  0  0  0  0  0  0  0  0  0  0
   11.5957    3.1874   13.4456 H   0  0  0  0  0  0  0  0  0  0  0  0
   12.5970    0.3058   13.8088 H   0  0  0  0  0  0  0  0  0  0  0  0
   11.2963   -1.7836   14.1892 H   0  0  0  0  0  0  0  0  0  0  0  0
    9.0434   -1.6717   15.1860 H   0  0  0  0  0  0  0  0  0  0  0  0
    8.1298    0.4745   16.0646 H   0  0  0  0  0  0  0  0  0  0  0  0
    6.7463    4.3358   20.0203 H   0  0  0  0  0  0  0  0  0  0  0  0
    9.3269    5.5702   20.6421 H   0  0  0  0  0  0  0  0  0  0  0  0
    8.4587    4.2171   21.2705 H   0  0  0  0  0  0  0  0  0  0  0  0
    8.0102    7.1909   21.8440 H   0  0  0  0  0  0  0  0  0  0  0  0
    8.4164    5.9046   22.9717 H   0  0  0  0  0  0  0  0  0  0  0  0
    6.1422    6.4349   23.2019 H   0  0  0  0  0  0  0  0  0  0  0  0
    5.0756    7.2518   21.4481 H   0  0  0  0  0  0  0  0  0  0  0  0
    4.6960    5.5508   21.2569 H   0  0  0  0  0  0  0  0  0  0  0  0
    5.4056    6.1149   19.1022 H   0  0  0  0  0  0  0  0  0  0  0  0
    6.5599    7.3046   19.6805 H   0  0  0  0  0  0  0  0  0  0  0  0
  1  2  1  0
  2  3  1  0
  3  4  1  0
  4  5  2  0
  4  6  1  0
  6  7  1  0
  7  8  1  0
  8  9  2  0
  8 10  1  0
 10 11  1  0
 11 12  2  0
 12 13  1  0
 13 14  2  0
 14 15  1  0
 15 16  2  0
  3 17  1  0
 17 18  1  0
 18 19  1  0
 19 20  1  0
 20 21  1  0
 21 22  1  0
 16  7  1  0
 22 17  1  0
 16 11  1  0
  1 23  1  0
  1 24  1  0
  1 25  1  0
  2 26  1  0
  2 27  1  0
  6 28  1  0
  6 29  1  0
 10 30  1  0
 10 31  1  0
 12 32  1  0
 13 33  1  0
 14 34  1  0
 15 35  1  0
 17 36  1  0
 18 37  1  0
 18 38  1  0
 19 39  1  0
 19 40  1  0
 20 41  1  0
 21 42  1  0
 21 43  1  0
 22 44  1  0
 22 45  1  0
M  END
>  <Energy>  (430) 
120.82354403479576

>  <compound_id>  (430) 
66549

>  <target_id>  (430) 
1

>  <reference_id>  (430) 
53

>  <inspiration_ids>  (430) 
[97, 53]

>  <energy_score>  (430) 
49.4476066781113

>  <distance_score>  (430) 
5.673227389878236

>  <path>  (430) 
/opt/xchem-fragalysis-2/maxwin/BulkDock/SCRATCH/511020/C66549-P53/C66549-P53.minimised.mol

>  <scratch_subdir>  (430) 
/opt/xchem-fragalysis-2/maxwin/BulkDock/SCRATCH/511020/C66549-P53

>  <fragmenstein_runtime>  (430) 
3.8234426975250244

>  <fragmenstein_outcome>  (430) 
too moved

>  <fragmenstein_mode>  (430) 
expansion

>  <fragmenstein_error>  (430) 


$$$$
C65592-P44
     RDKit          3D

 52 54  0  0  0  0  0  0  0  0999 V2000
    5.8469    7.8004   21.7904 C   0  0  0  0  0  0  0  0  0  0  0  0
    5.6844    7.4508   20.0524 C   0  0  0  0  0  0  0  0  0  0  0  0
    5.7829    9.2070   19.8941 C   0  0  0  0  0  0  0  0  0  0  0  0
    6.7108    7.3778   19.0716 N   0  0  0  0  0  0  0  0  0  0  0  0
    6.8528    6.8322   17.7804 C   0  0  0  0  0  0  0  0  0  0  0  0
    6.5911    7.4440   16.7505 O   0  0  0  0  0  0  0  0  0  0  0  0
    7.4708    5.4576   17.6008 C   0  0  0  0  0  0  0  0  0  0  0  0
    7.4384    4.4615   18.5586 C   0  0  0  0  0  0  0  0  0  0  0  0
    8.0376    3.2095   18.3370 C   0  0  0  0  0  0  0  0  0  0  0  0
    8.7227    2.9272   17.1498 C   0  0  0  0  0  0  0  0  0  0  0  0
    8.9012    3.9600   16.2255 C   0  0  0  0  0  0  0  0  0  0  0  0
    8.2483    5.1986   16.4463 C   0  0  0  0  0  0  0  0  0  0  0  0
    9.7899    3.7528   15.0233 C   0  0  0  0  0  0  0  0  0  0  0  0
    9.2290    2.7176   14.0572 C   0  0  0  0  0  0  0  0  0  0  0  0
    9.3492    1.2566   14.4958 C   0  0  0  0  0  0  0  0  0  0  0  0
    8.6737    0.8801   15.7320 N   0  0  0  0  0  0  0  0  0  0  0  0
    9.2440    1.5395   16.8997 C   0  0  0  0  0  0  0  0  0  0  0  0
    4.9545    6.9600   19.6713 C   0  0  0  0  0  0  0  0  0  0  0  0
    4.4601    5.5702   20.5146 C   0  0  0  0  0  0  0  0  0  0  0  0
    3.3091    5.8109   21.4971 C   0  0  0  0  0  0  0  0  0  0  0  0
    2.1710    6.4392   20.8404 N   0  0  0  0  0  0  0  0  0  0  0  0
    2.4891    7.7584   20.3038 C   0  0  0  0  0  0  0  0  0  0  0  0
    3.5211    7.7149   19.1639 C   0  0  0  0  0  0  0  0  0  0  0  0
    6.7513    8.3861   21.9983 H   0  0  0  0  0  0  0  0  0  0  0  0
    5.9166    6.8669   22.3658 H   0  0  0  0  0  0  0  0  0  0  0  0
    4.9561    8.3294   22.1455 H   0  0  0  0  0  0  0  0  0  0  0  0
    6.6042    6.8558   20.5303 H   0  0  0  0  0  0  0  0  0  0  0  0
    6.7664    9.5716   20.2214 H   0  0  0  0  0  0  0  0  0  0  0  0
    4.9921    9.7016   20.4699 H   0  0  0  0  0  0  0  0  0  0  0  0
    5.6715    9.5052   18.8416 H   0  0  0  0  0  0  0  0  0  0  0  0
    6.8927    4.6367   19.4697 H   0  0  0  0  0  0  0  0  0  0  0  0
    7.9252    2.4368   19.0940 H   0  0  0  0  0  0  0  0  0  0  0  0
    8.3573    5.9955   15.7103 H   0  0  0  0  0  0  0  0  0  0  0  0
   10.8014    3.4823   15.3498 H   0  0  0  0  0  0  0  0  0  0  0  0
    9.8934    4.7050   14.4876 H   0  0  0  0  0  0  0  0  0  0  0  0
    9.7670    2.8190   13.1069 H   0  0  0  0  0  0  0  0  0  0  0  0
    8.1801    2.9606   13.8591 H   0  0  0  0  0  0  0  0  0  0  0  0
   10.4079    0.9735   14.5515 H   0  0  0  0  0  0  0  0  0  0  0  0
    8.9218    0.6407   13.6988 H   0  0  0  0  0  0  0  0  0  0  0  0
    7.6768    1.1231   15.7029 H   0  0  0  0  0  0  0  0  0  0  0  0
   10.3248    1.5676   16.8068 H   0  0  0  0  0  0  0  0  0  0  0  0
    9.0148    0.9114   17.7652 H   0  0  0  0  0  0  0  0  0  0  0  0
    4.8713    6.3232   18.6975 H   0  0  0  0  0  0  0  0  0  0  0  0
    5.3034    5.1152   21.0218 H   0  0  0  0  0  0  0  0  0  0  0  0
    4.0860    4.8828   19.7502 H   0  0  0  0  0  0  0  0  0  0  0  0
    3.6268    6.4072   22.3567 H   0  0  0  0  0  0  0  0  0  0  0  0
    2.9836    4.8458   21.9003 H   0  0  0  0  0  0  0  0  0  0  0  0
    1.4029    6.5228   21.5085 H   0  0  0  0  0  0  0  0  0  0  0  0
    1.5661    8.1954   19.9056 H   0  0  0  0  0  0  0  0  0  0  0  0
    2.8279    8.4267   21.1028 H   0  0  0  0  0  0  0  0  0  0  0  0
    3.0986    7.1276   18.3347 H   0  0  0  0  0  0  0  0  0  0  0  0
    3.6907    8.7143   18.7562 H   0  0  0  0  0  0  0  0  0  0  0  0
  1  2  1  0
  2  3  1  0
  2  4  1  0
  4  5  1  0
  5  6  2  0
  5  7  1  0
  7  8  2  0
  8  9  1  0
  9 10  2  0
 10 11  1  0
 11 12  2  0
 11 13  1  0
 13 14  1  0
 14 15  1  0
 15 16  1  0
 16 17  1  0
  4 18  1  0
 18 19  1  0
 19 20  1  0
 20 21  1  0
 21 22  1  0
 22 23  1  0
 12  7  1  0
 23 18  1  0
 17 10  1  0
  1 24  1  0
  1 25  1  0
  1 26  1  0
  2 27  1  0
  3 28  1  0
  3 29  1  0
  3 30  1  0
  8 31  1  0
  9 32  1  0
 12 33  1  0
 13 34  1  0
 13 35  1  0
 14 36  1  0
 14 37  1  0
 15 38  1  0
 15 39  1  0
 16 40  1  0
 17 41  1  0
 17 42  1  0
 18 43  1  0
 19 44  1  0
 19 45  1  0
 20 46  1  0
 20 47  1  0
 21 48  1  0
 22 49  1  0
 22 50  1  0
 23 51  1  0
 23 52  1  0
M  END
>  <Energy>  (431) 
653.45935327884547

>  <compound_id>  (431) 
65592

>  <target_id>  (431) 
1

>  <reference_id>  (431) 
44

>  <inspiration_ids>  (431) 
[44, 146]

>  <energy_score>  (431) 
551.2231973934454

>  <distance_score>  (431) 
9.212580432940337

>  <path>  (431) 
/opt/xchem-fragalysis-2/maxwin/BulkDock/SCRATCH/511020/C65592-P44/C65592-P44.minimised.mol

>  <scratch_subdir>  (431) 
/opt/xchem-fragalysis-2/maxwin/BulkDock/SCRATCH/511020/C65592-P44

>  <fragmenstein_runtime>  (431) 
14.932191371917725

>  <fragmenstein_outcome>  (431) 
too moved

>  <fragmenstein_mode>  (431) 
expansion

>  <fragmenstein_error>  (431) 


$$$$
C65592-P146
     RDKit          3D

 52 54  0  0  0  0  0  0  0  0999 V2000
    7.5769    7.6542   22.0134 C   0  0  0  0  0  0  0  0  0  0  0  0
    7.2069    6.0750   21.3689 C   0  0  0  0  0  0  0  0  0  0  0  0
    6.8977    6.2445   19.6576 C   0  0  0  0  0  0  0  0  0  0  0  0
    7.9651    4.5067   21.7191 N   0  0  0  0  0  0  0  0  0  0  0  0
    9.2325    4.5192   21.1029 C   0  0  0  0  0  0  0  0  0  0  0  0
   10.2500    4.8981   21.6769 O   0  0  0  0  0  0  0  0  0  0  0  0
    9.4301    3.9495   19.7265 C   0  0  0  0  0  0  0  0  0  0  0  0
    8.7486    2.8218   19.2847 C   0  0  0  0  0  0  0  0  0  0  0  0
    9.0353    2.2705   18.0230 C   0  0  0  0  0  0  0  0  0  0  0  0
   10.0076    2.8274   17.1661 C   0  0  0  0  0  0  0  0  0  0  0  0
   10.7546    3.9233   17.6234 C   0  0  0  0  0  0  0  0  0  0  0  0
   10.4645    4.4498   18.9108 C   0  0  0  0  0  0  0  0  0  0  0  0
   11.8190    4.6441   16.8167 C   0  0  0  0  0  0  0  0  0  0  0  0
   12.1470    4.2278   15.3803 C   0  0  0  0  0  0  0  0  0  0  0  0
   10.9557    4.2002   14.4344 C   0  0  0  0  0  0  0  0  0  0  0  0
    9.8501    3.3176   14.7768 N   0  0  0  0  0  0  0  0  0  0  0  0
   10.1476    2.2811   15.7621 C   0  0  0  0  0  0  0  0  0  0  0  0
    6.7036    5.5440   21.8893 C   0  0  0  0  0  0  0  0  0  0  0  0
    6.6395    5.6590   23.6720 C   0  0  0  0  0  0  0  0  0  0  0  0
    5.2780    5.9628   24.2744 C   0  0  0  0  0  0  0  0  0  0  0  0
    4.3395    4.9433   23.8497 N   0  0  0  0  0  0  0  0  0  0  0  0
    3.8771    5.2010   22.4987 C   0  0  0  0  0  0  0  0  0  0  0  0
    4.9470    5.6207   21.4652 C   0  0  0  0  0  0  0  0  0  0  0  0
    7.7956    8.3352   21.1807 H   0  0  0  0  0  0  0  0  0  0  0  0
    8.4457    7.6066   22.6798 H   0  0  0  0  0  0  0  0  0  0  0  0
    6.7016    8.0564   22.5349 H   0  0  0  0  0  0  0  0  0  0  0  0
    8.2747    6.3376   21.0022 H   0  0  0  0  0  0  0  0  0  0  0  0
    6.1527    7.0306   19.5020 H   0  0  0  0  0  0  0  0  0  0  0  0
    7.8141    6.5342   19.1280 H   0  0  0  0  0  0  0  0  0  0  0  0
    6.5585    5.2905   19.2432 H   0  0  0  0  0  0  0  0  0  0  0  0
    8.0069    2.3522   19.9207 H   0  0  0  0  0  0  0  0  0  0  0  0
    8.4612    1.4061   17.6962 H   0  0  0  0  0  0  0  0  0  0  0  0
   11.0478    5.2944   19.2806 H   0  0  0  0  0  0  0  0  0  0  0  0
   11.5247    5.7026   16.7818 H   0  0  0  0  0  0  0  0  0  0  0  0
   12.7526    4.6023   17.3933 H   0  0  0  0  0  0  0  0  0  0  0  0
   12.8763    4.9474   14.9846 H   0  0  0  0  0  0  0  0  0  0  0  0
   12.6598    3.2674   15.3423 H   0  0  0  0  0  0  0  0  0  0  0  0
   11.3173    3.9049   13.4421 H   0  0  0  0  0  0  0  0  0  0  0  0
   10.5645    5.2179   14.3145 H   0  0  0  0  0  0  0  0  0  0  0  0
    9.0657    3.8676   15.1244 H   0  0  0  0  0  0  0  0  0  0  0  0
   11.1146    1.7950   15.6052 H   0  0  0  0  0  0  0  0  0  0  0  0
    9.4102    1.4821   15.6180 H   0  0  0  0  0  0  0  0  0  0  0  0
    6.2605    4.4689   22.0099 H   0  0  0  0  0  0  0  0  0  0  0  0
    6.9930    4.6981   24.0633 H   0  0  0  0  0  0  0  0  0  0  0  0
    7.3792    6.3779   24.0365 H   0  0  0  0  0  0  0  0  0  0  0  0
    4.9381    6.9735   24.0210 H   0  0  0  0  0  0  0  0  0  0  0  0
    5.3688    5.9257   25.3660 H   0  0  0  0  0  0  0  0  0  0  0  0
    3.5343    4.9254   24.4783 H   0  0  0  0  0  0  0  0  0  0  0  0
    3.3277    4.3250   22.1468 H   0  0  0  0  0  0  0  0  0  0  0  0
    3.1194    5.9961   22.5319 H   0  0  0  0  0  0  0  0  0  0  0  0
    4.7802    5.1006   20.5158 H   0  0  0  0  0  0  0  0  0  0  0  0
    4.7668    6.6902   21.2738 H   0  0  0  0  0  0  0  0  0  0  0  0
  1  2  1  0
  2  3  1  0
  2  4  1  0
  4  5  1  0
  5  6  2  0
  5  7  1  0
  7  8  2  0
  8  9  1  0
  9 10  2  0
 10 11  1  0
 11 12  2  0
 11 13  1  0
 13 14  1  0
 14 15  1  0
 15 16  1  0
 16 17  1  0
  4 18  1  0
 18 19  1  0
 19 20  1  0
 20 21  1  0
 21 22  1  0
 22 23  1  0
 12  7  1  0
 23 18  1  0
 17 10  1  0
  1 24  1  0
  1 25  1  0
  1 26  1  0
  2 27  1  0
  3 28  1  0
  3 29  1  0
  3 30  1  0
  8 31  1  0
  9 32  1  0
 12 33  1  0
 13 34  1  0
 13 35  1  0
 14 36  1  0
 14 37  1  0
 15 38  1  0
 15 39  1  0
 16 40  1  0
 17 41  1  0
 17 42  1  0
 18 43  1  0
 19 44  1  0
 19 45  1  0
 20 46  1  0
 20 47  1  0
 21 48  1  0
 22 49  1  0
 22 50  1  0
 23 51  1  0
 23 52  1  0
M  END
>  <Energy>  (432) 
652.2423357846958

>  <compound_id>  (432) 
65592

>  <target_id>  (432) 
1

>  <reference_id>  (432) 
146

>  <inspiration_ids>  (432) 
[44, 146]

>  <energy_score>  (432) 
550.0061798992965

>  <distance_score>  (432) 
8.118433652542292

>  <path>  (432) 
/opt/xchem-fragalysis-2/maxwin/BulkDock/SCRATCH/511020/C65592-P146/C65592-P146.minimised.mol

>  <scratch_subdir>  (432) 
/opt/xchem-fragalysis-2/maxwin/BulkDock/SCRATCH/511020/C65592-P146

>  <fragmenstein_runtime>  (432) 
13.455305814743042

>  <fragmenstein_outcome>  (432) 
too moved

>  <fragmenstein_mode>  (432) 
expansion

>  <fragmenstein_error>  (432) 


$$$$
C65599-P44
     RDKit          3D

 49 52  0  0  0  0  0  0  0  0999 V2000
    4.8989   -0.0402   22.8350 O   0  0  0  0  0  0  0  0  0  0  0  0
    4.9205    1.1746   22.6112 C   0  0  0  0  0  0  0  0  0  0  0  0
    6.0082    2.0892   21.3708 N   0  0  0  0  0  0  0  0  0  0  0  0
    7.3273    1.4359   20.0785 C   0  0  0  0  0  0  0  0  0  0  0  0
    7.9006    2.1736   18.8019 C   0  0  0  0  0  0  0  0  0  0  0  0
    8.1370    3.5304   18.6032 C   0  0  0  0  0  0  0  0  0  0  0  0
    8.8667    3.9755   17.4754 C   0  0  0  0  0  0  0  0  0  0  0  0
    9.3515    3.0623   16.5449 C   0  0  0  0  0  0  0  0  0  0  0  0
    9.1212    1.7140   16.7027 C   0  0  0  0  0  0  0  0  0  0  0  0
    8.4435    1.2740   17.8227 C   0  0  0  0  0  0  0  0  0  0  0  0
    9.6429    0.9715   15.5171 C   0  0  0  0  0  0  0  0  0  0  0  0
   10.5708    1.9213   14.8520 N   0  0  0  0  0  0  0  0  0  0  0  0
   10.1324    3.2751   15.2899 C   0  0  0  0  0  0  0  0  0  0  0  0
    3.9997    2.3418   23.5365 C   0  0  0  0  0  0  0  0  0  0  0  0
    2.8408    3.1900   22.9985 C   0  0  0  0  0  0  0  0  0  0  0  0
    1.8089    3.6415   24.0370 C   0  0  0  0  0  0  0  0  0  0  0  0
    2.4078    3.7395   25.4303 C   0  0  0  0  0  0  0  0  0  0  0  0
    2.8103    2.4071   25.8592 N   0  0  0  0  0  0  0  0  0  0  0  0
    2.3369    1.7286   27.0114 C   0  0  0  0  0  0  0  0  0  0  0  0
    1.5271    2.3100   27.9210 C   0  0  0  0  0  0  0  0  0  0  0  0
    1.0290    1.5383   29.0706 C   0  0  0  0  0  0  0  0  0  0  0  0
    0.3522    2.0477   29.9571 O   0  0  0  0  0  0  0  0  0  0  0  0
    1.3783    0.2286   29.0871 N   0  0  0  0  0  0  0  0  0  0  0  0
    2.2301   -0.2692   28.1598 C   0  0  0  0  0  0  0  0  0  0  0  0
    2.7189    0.4110   27.1859 N   0  0  0  0  0  0  0  0  0  0  0  0
    3.7574    1.6996   24.9459 C   0  0  0  0  0  0  0  0  0  0  0  0
    5.8726    3.1306   21.4643 H   0  0  0  0  0  0  0  0  0  0  0  0
    6.9672    0.4475   19.7299 H   0  0  0  0  0  0  0  0  0  0  0  0
    8.3855    1.3304   20.3572 H   0  0  0  0  0  0  0  0  0  0  0  0
    7.7718    4.2763   19.2951 H   0  0  0  0  0  0  0  0  0  0  0  0
    9.0539    5.0380   17.3421 H   0  0  0  0  0  0  0  0  0  0  0  0
    8.2330    0.2222   17.9217 H   0  0  0  0  0  0  0  0  0  0  0  0
   10.1675    0.0544   15.7978 H   0  0  0  0  0  0  0  0  0  0  0  0
    8.8212    0.7216   14.8375 H   0  0  0  0  0  0  0  0  0  0  0  0
   11.4903    1.7672   15.2617 H   0  0  0  0  0  0  0  0  0  0  0  0
   11.0029    3.9163   15.4591 H   0  0  0  0  0  0  0  0  0  0  0  0
    9.4951    3.7204   14.5188 H   0  0  0  0  0  0  0  0  0  0  0  0
    4.7542    3.1173   23.7552 H   0  0  0  0  0  0  0  0  0  0  0  0
    3.2796    4.1144   22.5935 H   0  0  0  0  0  0  0  0  0  0  0  0
    2.3509    2.7367   22.1391 H   0  0  0  0  0  0  0  0  0  0  0  0
    0.9582    2.9550   24.0587 H   0  0  0  0  0  0  0  0  0  0  0  0
    1.4045    4.6158   23.7373 H   0  0  0  0  0  0  0  0  0  0  0  0
    3.2779    4.4071   25.4338 H   0  0  0  0  0  0  0  0  0  0  0  0
    1.6654    4.1981   26.0875 H   0  0  0  0  0  0  0  0  0  0  0  0
    1.1888    3.3324   27.8806 H   0  0  0  0  0  0  0  0  0  0  0  0
    1.0437   -0.3327   29.8535 H   0  0  0  0  0  0  0  0  0  0  0  0
    2.4910   -1.3283   28.3077 H   0  0  0  0  0  0  0  0  0  0  0  0
    4.7293    1.6499   25.4565 H   0  0  0  0  0  0  0  0  0  0  0  0
    3.4438    0.6604   24.8435 H   0  0  0  0  0  0  0  0  0  0  0  0
  1  2  2  0
  2  3  1  0
  3  4  1  0
  4  5  1  0
  5  6  2  0
  6  7  1  0
  7  8  2  0
  8  9  1  0
  9 10  2  0
  9 11  1  0
 11 12  1  0
 12 13  1  0
  2 14  1  0
 14 15  1  0
 15 16  1  0
 16 17  1  0
 17 18  1  0
 18 19  1  0
 19 20  2  0
 20 21  1  0
 21 22  2  0
 21 23  1  0
 23 24  1  0
 24 25  2  0
 18 26  1  0
 10  5  1  0
 26 14  1  0
 13  8  1  0
 25 19  1  0
  3 27  1  0
  4 28  1  0
  4 29  1  0
  6 30  1  0
  7 31  1  0
 10 32  1  0
 11 33  1  0
 11 34  1  0
 12 35  1  0
 13 36  1  0
 13 37  1  0
 14 38  1  0
 15 39  1  0
 15 40  1  0
 16 41  1  0
 16 42  1  0
 17 43  1  0
 17 44  1  0
 20 45  1  0
 23 46  1  0
 24 47  1  0
 26 48  1  0
 26 49  1  0
M  END
>  <Energy>  (433) 
100.03598096747065

>  <compound_id>  (433) 
65599

>  <target_id>  (433) 
1

>  <reference_id>  (433) 
44

>  <inspiration_ids>  (433) 
[44, 146]

>  <energy_score>  (433) 
155.96232611373085

>  <distance_score>  (433) 
6.3116270241663885

>  <path>  (433) 
/opt/xchem-fragalysis-2/maxwin/BulkDock/SCRATCH/511020/C65599-P44/C65599-P44.minimised.mol

>  <scratch_subdir>  (433) 
/opt/xchem-fragalysis-2/maxwin/BulkDock/SCRATCH/511020/C65599-P44

>  <fragmenstein_runtime>  (433) 
13.320619821548462

>  <fragmenstein_outcome>  (433) 
too moved

>  <fragmenstein_mode>  (433) 
expansion

>  <fragmenstein_error>  (433) 


$$$$
C65599-P146
     RDKit          3D

 49 52  0  0  0  0  0  0  0  0999 V2000
    2.2783    2.5002   21.1263 O   0  0  0  0  0  0  0  0  0  0  0  0
    2.8715    2.3523   22.1871 C   0  0  0  0  0  0  0  0  0  0  0  0
    4.2266    1.5851   22.5115 N   0  0  0  0  0  0  0  0  0  0  0  0
    5.4673    0.7462   21.3888 C   0  0  0  0  0  0  0  0  0  0  0  0
    7.3622    1.2108   20.6367 C   0  0  0  0  0  0  0  0  0  0  0  0
    7.9598    2.5766   20.6256 C   0  0  0  0  0  0  0  0  0  0  0  0
    8.9059    3.0641   19.6967 C   0  0  0  0  0  0  0  0  0  0  0  0
    9.1856    2.3112   18.5865 C   0  0  0  0  0  0  0  0  0  0  0  0
    8.6381    1.0429   18.4484 C   0  0  0  0  0  0  0  0  0  0  0  0
    7.8145    0.4689   19.4717 C   0  0  0  0  0  0  0  0  0  0  0  0
    8.8599    0.6461   16.9995 C   0  0  0  0  0  0  0  0  0  0  0  0
    9.9203    1.5319   16.4950 N   0  0  0  0  0  0  0  0  0  0  0  0
    9.8949    2.7323   17.3387 C   0  0  0  0  0  0  0  0  0  0  0  0
    2.3518    3.1047   23.5296 C   0  0  0  0  0  0  0  0  0  0  0  0
    1.0330    3.8708   23.3079 C   0  0  0  0  0  0  0  0  0  0  0  0
    0.5938    4.5741   24.5769 C   0  0  0  0  0  0  0  0  0  0  0  0
    0.2981    3.5411   25.6409 C   0  0  0  0  0  0  0  0  0  0  0  0
    1.4598    2.6902   25.9456 N   0  0  0  0  0  0  0  0  0  0  0  0
    1.3397    1.8165   27.0562 C   0  0  0  0  0  0  0  0  0  0  0  0
    2.4179    1.2144   27.5930 C   0  0  0  0  0  0  0  0  0  0  0  0
    2.2498    0.2379   28.6756 C   0  0  0  0  0  0  0  0  0  0  0  0
    3.2097   -0.3208   29.1940 O   0  0  0  0  0  0  0  0  0  0  0  0
    0.9676   -0.0043   29.0466 N   0  0  0  0  0  0  0  0  0  0  0  0
   -0.0602    0.6740   28.4780 C   0  0  0  0  0  0  0  0  0  0  0  0
    0.0791    1.5575   27.5546 N   0  0  0  0  0  0  0  0  0  0  0  0
    2.5835    2.5940   24.9707 C   0  0  0  0  0  0  0  0  0  0  0  0
    4.3828    1.5854   23.5043 H   0  0  0  0  0  0  0  0  0  0  0  0
    5.1905   -0.2658   21.4975 H   0  0  0  0  0  0  0  0  0  0  0  0
    5.8430    0.9254   22.2703 H   0  0  0  0  0  0  0  0  0  0  0  0
    7.5946    3.3886   21.2632 H   0  0  0  0  0  0  0  0  0  0  0  0
    9.2620    4.0881   19.7741 H   0  0  0  0  0  0  0  0  0  0  0  0
    7.2972   -0.4389   19.2363 H   0  0  0  0  0  0  0  0  0  0  0  0
    9.1587   -0.3834   16.8281 H   0  0  0  0  0  0  0  0  0  0  0  0
    7.9680    0.8276   16.4083 H   0  0  0  0  0  0  0  0  0  0  0  0
    9.7514    1.7718   15.5204 H   0  0  0  0  0  0  0  0  0  0  0  0
   10.9083    3.0820   17.5493 H   0  0  0  0  0  0  0  0  0  0  0  0
    9.3272    3.5282   16.8441 H   0  0  0  0  0  0  0  0  0  0  0  0
    3.0827    3.9362   23.4951 H   0  0  0  0  0  0  0  0  0  0  0  0
    0.2243    3.2195   22.9643 H   0  0  0  0  0  0  0  0  0  0  0  0
    1.1726    4.6126   22.5110 H   0  0  0  0  0  0  0  0  0  0  0  0
   -0.3058    5.1677   24.3785 H   0  0  0  0  0  0  0  0  0  0  0  0
    1.3718    5.2683   24.9168 H   0  0  0  0  0  0  0  0  0  0  0  0
   -0.0202    4.0675   26.5497 H   0  0  0  0  0  0  0  0  0  0  0  0
   -0.5412    2.9139   25.3146 H   0  0  0  0  0  0  0  0  0  0  0  0
    3.4292    1.3840   27.2580 H   0  0  0  0  0  0  0  0  0  0  0  0
    0.8139   -0.6840   29.7742 H   0  0  0  0  0  0  0  0  0  0  0  0
   -1.0517    0.4151   28.8807 H   0  0  0  0  0  0  0  0  0  0  0  0
    3.3993    3.1868   25.4077 H   0  0  0  0  0  0  0  0  0  0  0  0
    2.9690    1.5727   24.9453 H   0  0  0  0  0  0  0  0  0  0  0  0
  1  2  2  0
  2  3  1  0
  3  4  1  0
  4  5  1  0
  5  6  2  0
  6  7  1  0
  7  8  2  0
  8  9  1  0
  9 10  2  0
  9 11  1  0
 11 12  1  0
 12 13  1  0
  2 14  1  0
 14 15  1  0
 15 16  1  0
 16 17  1  0
 17 18  1  0
 18 19  1  0
 19 20  2  0
 20 21  1  0
 21 22  2  0
 21 23  1  0
 23 24  1  0
 24 25  2  0
 18 26  1  0
 10  5  1  0
 26 14  1  0
 13  8  1  0
 25 19  1  0
  3 27  1  0
  4 28  1  0
  4 29  1  0
  6 30  1  0
  7 31  1  0
 10 32  1  0
 11 33  1  0
 11 34  1  0
 12 35  1  0
 13 36  1  0
 13 37  1  0
 14 38  1  0
 15 39  1  0
 15 40  1  0
 16 41  1  0
 16 42  1  0
 17 43  1  0
 17 44  1  0
 20 45  1  0
 23 46  1  0
 24 47  1  0
 26 48  1  0
 26 49  1  0
M  END
>  <Energy>  (434) 
159.97953383047781

>  <compound_id>  (434) 
65599

>  <target_id>  (434) 
1

>  <reference_id>  (434) 
146

>  <inspiration_ids>  (434) 
[44, 146]

>  <energy_score>  (434) 
215.9058789767334

>  <distance_score>  (434) 
6.0929097281765845

>  <path>  (434) 
/opt/xchem-fragalysis-2/maxwin/BulkDock/SCRATCH/511020/C65599-P146/C65599-P146.minimised.mol

>  <scratch_subdir>  (434) 
/opt/xchem-fragalysis-2/maxwin/BulkDock/SCRATCH/511020/C65599-P146

>  <fragmenstein_runtime>  (434) 
9.825690507888794

>  <fragmenstein_outcome>  (434) 
too moved

>  <fragmenstein_mode>  (434) 
expansion

>  <fragmenstein_error>  (434) 


$$$$
C65608-P44
     RDKit          3D

 53 55  0  0  0  0  0  0  0  0999 V2000
    6.6150    1.4070   28.0344 C   0  0  0  0  0  0  0  0  0  0  0  0
    6.5147    0.8132   26.7050 N   0  0  0  0  0  0  0  0  0  0  0  0
    7.4676   -0.3496   26.5877 C   0  0  0  0  0  0  0  0  0  0  0  0
    8.9163   -0.1049   26.0904 C   0  0  0  0  0  0  0  0  0  0  0  0
    9.4135    1.1590   25.7107 C   0  0  0  0  0  0  0  0  0  0  0  0
   10.6956    1.3243   25.1457 C   0  0  0  0  0  0  0  0  0  0  0  0
   11.5069    0.2166   24.9855 C   0  0  0  0  0  0  0  0  0  0  0  0
   11.0573   -1.0403   25.3682 C   0  0  0  0  0  0  0  0  0  0  0  0
    9.7857   -1.2160   25.9270 C   0  0  0  0  0  0  0  0  0  0  0  0
   12.0959   -2.0540   25.0044 C   0  0  0  0  0  0  0  0  0  0  0  0
   13.3231   -1.2882   24.6415 N   0  0  0  0  0  0  0  0  0  0  0  0
   12.8795    0.1127   24.4027 C   0  0  0  0  0  0  0  0  0  0  0  0
    5.1058    0.4763   26.3020 C   0  0  0  0  0  0  0  0  0  0  0  0
    4.4321   -0.7325   26.9803 C   0  0  0  0  0  0  0  0  0  0  0  0
    3.4660   -0.4121   28.1196 C   0  0  0  0  0  0  0  0  0  0  0  0
    2.4557    0.5795   27.7225 N   0  0  0  0  0  0  0  0  0  0  0  0
    1.3012    0.6877   28.6712 C   0  0  0  0  0  0  0  0  0  0  0  0
    1.7304    0.8398   30.1425 C   0  0  0  0  0  0  0  0  0  0  0  0
    0.4160   -0.5800   28.5537 C   0  0  0  0  0  0  0  0  0  0  0  0
    0.3742    1.8757   28.3262 C   0  0  0  0  0  0  0  0  0  0  0  0
    3.1608    1.8369   27.4193 C   0  0  0  0  0  0  0  0  0  0  0  0
    4.1276    1.6754   26.2338 C   0  0  0  0  0  0  0  0  0  0  0  0
    6.0532    2.3436   28.0930 H   0  0  0  0  0  0  0  0  0  0  0  0
    6.2561    0.7333   28.8189 H   0  0  0  0  0  0  0  0  0  0  0  0
    7.6541    1.6672   28.2657 H   0  0  0  0  0  0  0  0  0  0  0  0
    7.5281   -0.8764   27.5498 H   0  0  0  0  0  0  0  0  0  0  0  0
    7.0483   -1.0697   25.8771 H   0  0  0  0  0  0  0  0  0  0  0  0
    8.7778    2.0361   25.8230 H   0  0  0  0  0  0  0  0  0  0  0  0
   11.0324    2.3098   24.8405 H   0  0  0  0  0  0  0  0  0  0  0  0
    9.4438   -2.2163   26.1838 H   0  0  0  0  0  0  0  0  0  0  0  0
   11.7705   -2.6698   24.1612 H   0  0  0  0  0  0  0  0  0  0  0  0
   12.3114   -2.7104   25.8539 H   0  0  0  0  0  0  0  0  0  0  0  0
   13.9017   -1.2652   25.4792 H   0  0  0  0  0  0  0  0  0  0  0  0
   13.5637    0.8015   24.9100 H   0  0  0  0  0  0  0  0  0  0  0  0
   12.8896    0.3445   23.3348 H   0  0  0  0  0  0  0  0  0  0  0  0
    5.2327    0.1829   25.2499 H   0  0  0  0  0  0  0  0  0  0  0  0
    5.1757   -1.4512   27.3422 H   0  0  0  0  0  0  0  0  0  0  0  0
    3.8756   -1.2729   26.2075 H   0  0  0  0  0  0  0  0  0  0  0  0
    2.9980   -1.3595   28.4045 H   0  0  0  0  0  0  0  0  0  0  0  0
    4.0356   -0.0695   28.9918 H   0  0  0  0  0  0  0  0  0  0  0  0
    2.2598   -0.0445   30.5128 H   0  0  0  0  0  0  0  0  0  0  0  0
    0.8582    0.9806   30.7925 H   0  0  0  0  0  0  0  0  0  0  0  0
    2.3819    1.7093   30.2825 H   0  0  0  0  0  0  0  0  0  0  0  0
    0.0802   -0.7296   27.5224 H   0  0  0  0  0  0  0  0  0  0  0  0
   -0.4812   -0.4944   29.1789 H   0  0  0  0  0  0  0  0  0  0  0  0
    0.9343   -1.4881   28.8760 H   0  0  0  0  0  0  0  0  0  0  0  0
    0.0907    1.8637   27.2671 H   0  0  0  0  0  0  0  0  0  0  0  0
   -0.5537    1.8374   28.9086 H   0  0  0  0  0  0  0  0  0  0  0  0
    0.8412    2.8413   28.5489 H   0  0  0  0  0  0  0  0  0  0  0  0
    3.6966    2.2090   28.3001 H   0  0  0  0  0  0  0  0  0  0  0  0
    2.4582    2.6204   27.1193 H   0  0  0  0  0  0  0  0  0  0  0  0
    3.5180    1.5487   25.3276 H   0  0  0  0  0  0  0  0  0  0  0  0
    4.6785    2.6111   26.0766 H   0  0  0  0  0  0  0  0  0  0  0  0
  1  2  1  0
  2  3  1  0
  3  4  1  0
  4  5  2  0
  5  6  1  0
  6  7  2  0
  7  8  1  0
  8  9  2  0
  8 10  1  0
 10 11  1  0
 11 12  1  0
  2 13  1  0
 13 14  1  0
 14 15  1  0
 15 16  1  0
 16 17  1  0
 17 18  1  0
 17 19  1  0
 17 20  1  0
 16 21  1  0
 21 22  1  0
  9  4  1  0
 22 13  1  0
 12  7  1  0
  1 23  1  0
  1 24  1  0
  1 25  1  0
  3 26  1  0
  3 27  1  0
  5 28  1  0
  6 29  1  0
  9 30  1  0
 10 31  1  0
 10 32  1  0
 11 33  1  0
 12 34  1  0
 12 35  1  0
 13 36  1  0
 14 37  1  0
 14 38  1  0
 15 39  1  0
 15 40  1  0
 18 41  1  0
 18 42  1  0
 18 43  1  0
 19 44  1  0
 19 45  1  0
 19 46  1  0
 20 47  1  0
 20 48  1  0
 20 49  1  0
 21 50  1  0
 21 51  1  0
 22 52  1  0
 22 53  1  0
M  END
>  <Energy>  (435) 
57.805480079751241

>  <compound_id>  (435) 
65608

>  <target_id>  (435) 
1

>  <reference_id>  (435) 
44

>  <inspiration_ids>  (435) 
[44, 146]

>  <energy_score>  (435) 
-31.675767503951477

>  <distance_score>  (435) 
8.399689338818398

>  <path>  (435) 
/opt/xchem-fragalysis-2/maxwin/BulkDock/SCRATCH/511020/C65608-P44/C65608-P44.minimised.mol

>  <scratch_subdir>  (435) 
/opt/xchem-fragalysis-2/maxwin/BulkDock/SCRATCH/511020/C65608-P44

>  <fragmenstein_runtime>  (435) 
17.030234575271606

>  <fragmenstein_outcome>  (435) 
too moved

>  <fragmenstein_mode>  (435) 
expansion

>  <fragmenstein_error>  (435) 


$$$$
C65608-P146
     RDKit          3D

 53 55  0  0  0  0  0  0  0  0999 V2000
    6.3219    1.1171   28.5510 C   0  0  0  0  0  0  0  0  0  0  0  0
    6.2267    0.6273   27.1782 N   0  0  0  0  0  0  0  0  0  0  0  0
    7.1953   -0.5117   26.9749 C   0  0  0  0  0  0  0  0  0  0  0  0
    8.6519   -0.2091   26.5153 C   0  0  0  0  0  0  0  0  0  0  0  0
    9.1140    1.0886   26.1998 C   0  0  0  0  0  0  0  0  0  0  0  0
   10.3637    1.3106   25.5825 C   0  0  0  0  0  0  0  0  0  0  0  0
   11.1795    0.2290   25.3086 C   0  0  0  0  0  0  0  0  0  0  0  0
   10.7850   -1.0513   25.6681 C   0  0  0  0  0  0  0  0  0  0  0  0
    9.5375   -1.2878   26.2601 C   0  0  0  0  0  0  0  0  0  0  0  0
   11.8840   -2.0061   25.3249 C   0  0  0  0  0  0  0  0  0  0  0  0
   12.8746   -1.2427   24.5203 N   0  0  0  0  0  0  0  0  0  0  0  0
   12.5384    0.1923   24.6919 C   0  0  0  0  0  0  0  0  0  0  0  0
    4.8156    0.2967   26.7633 C   0  0  0  0  0  0  0  0  0  0  0  0
    4.1319   -0.9345   27.3884 C   0  0  0  0  0  0  0  0  0  0  0  0
    3.1406   -0.6495   28.5155 C   0  0  0  0  0  0  0  0  0  0  0  0
    2.1480    0.3609   28.1244 N   0  0  0  0  0  0  0  0  0  0  0  0
    0.9526    0.4295   29.0207 C   0  0  0  0  0  0  0  0  0  0  0  0
    1.3173    0.5105   30.5142 C   0  0  0  0  0  0  0  0  0  0  0  0
    0.0755   -0.8287   28.7981 C   0  0  0  0  0  0  0  0  0  0  0  0
    0.0426    1.6360   28.6924 C   0  0  0  0  0  0  0  0  0  0  0  0
    2.8608    1.6268   27.9041 C   0  0  0  0  0  0  0  0  0  0  0  0
    3.8519    1.5113   26.7381 C   0  0  0  0  0  0  0  0  0  0  0  0
    5.7422    2.0349   28.6847 H   0  0  0  0  0  0  0  0  0  0  0  0
    7.3570    1.3781   28.7985 H   0  0  0  0  0  0  0  0  0  0  0  0
    5.9788    0.3769   29.2810 H   0  0  0  0  0  0  0  0  0  0  0  0
    6.7924   -1.1585   26.1847 H   0  0  0  0  0  0  0  0  0  0  0  0
    7.2464   -1.1281   27.8822 H   0  0  0  0  0  0  0  0  0  0  0  0
    8.4620    1.9429   26.3756 H   0  0  0  0  0  0  0  0  0  0  0  0
   10.6706    2.3197   25.3263 H   0  0  0  0  0  0  0  0  0  0  0  0
    9.2389   -2.3056   26.4962 H   0  0  0  0  0  0  0  0  0  0  0  0
   11.5146   -2.8662   24.7597 H   0  0  0  0  0  0  0  0  0  0  0  0
   12.3649   -2.3621   26.2420 H   0  0  0  0  0  0  0  0  0  0  0  0
   12.6212   -1.4520   23.5418 H   0  0  0  0  0  0  0  0  0  0  0  0
   13.2680    0.6563   25.3634 H   0  0  0  0  0  0  0  0  0  0  0  0
   12.5552    0.7090   23.7270 H   0  0  0  0  0  0  0  0  0  0  0  0
    4.9416    0.0297   25.7044 H   0  0  0  0  0  0  0  0  0  0  0  0
    3.5868   -1.4521   26.5884 H   0  0  0  0  0  0  0  0  0  0  0  0
    4.8733   -1.6604   27.7407 H   0  0  0  0  0  0  0  0  0  0  0  0
    2.6621   -1.6039   28.7565 H   0  0  0  0  0  0  0  0  0  0  0  0
    3.6892   -0.3396   29.4134 H   0  0  0  0  0  0  0  0  0  0  0  0
    1.8321   -0.3906   30.8644 H   0  0  0  0  0  0  0  0  0  0  0  0
    0.4175    0.6198   31.1317 H   0  0  0  0  0  0  0  0  0  0  0  0
    1.9606    1.3721   30.7240 H   0  0  0  0  0  0  0  0  0  0  0  0
   -0.8561   -0.7683   29.3738 H   0  0  0  0  0  0  0  0  0  0  0  0
    0.5745   -1.7513   29.1098 H   0  0  0  0  0  0  0  0  0  0  0  0
   -0.1997   -0.9332   27.7431 H   0  0  0  0  0  0  0  0  0  0  0  0
   -0.1925    1.6766   27.6222 H   0  0  0  0  0  0  0  0  0  0  0  0
   -0.9113    1.5712   29.2296 H   0  0  0  0  0  0  0  0  0  0  0  0
    0.4986    2.5884   28.9840 H   0  0  0  0  0  0  0  0  0  0  0  0
    2.1721    2.4296   27.6242 H   0  0  0  0  0  0  0  0  0  0  0  0
    3.3763    1.9533   28.8147 H   0  0  0  0  0  0  0  0  0  0  0  0
    4.4140    2.4495   26.6526 H   0  0  0  0  0  0  0  0  0  0  0  0
    3.2647    1.4436   25.8117 H   0  0  0  0  0  0  0  0  0  0  0  0
  1  2  1  0
  2  3  1  0
  3  4  1  0
  4  5  2  0
  5  6  1  0
  6  7  2  0
  7  8  1  0
  8  9  2  0
  8 10  1  0
 10 11  1  0
 11 12  1  0
  2 13  1  0
 13 14  1  0
 14 15  1  0
 15 16  1  0
 16 17  1  0
 17 18  1  0
 17 19  1  0
 17 20  1  0
 16 21  1  0
 21 22  1  0
  9  4  1  0
 22 13  1  0
 12  7  1  0
  1 23  1  0
  1 24  1  0
  1 25  1  0
  3 26  1  0
  3 27  1  0
  5 28  1  0
  6 29  1  0
  9 30  1  0
 10 31  1  0
 10 32  1  0
 11 33  1  0
 12 34  1  0
 12 35  1  0
 13 36  1  0
 14 37  1  0
 14 38  1  0
 15 39  1  0
 15 40  1  0
 18 41  1  0
 18 42  1  0
 18 43  1  0
 19 44  1  0
 19 45  1  0
 19 46  1  0
 20 47  1  0
 20 48  1  0
 20 49  1  0
 21 50  1  0
 21 51  1  0
 22 52  1  0
 22 53  1  0
M  END
>  <Energy>  (436) 
58.557911781867453

>  <compound_id>  (436) 
65608

>  <target_id>  (436) 
1

>  <reference_id>  (436) 
146

>  <inspiration_ids>  (436) 
[44, 146]

>  <energy_score>  (436) 
-30.923335801835833

>  <distance_score>  (436) 
8.567519330133967

>  <path>  (436) 
/opt/xchem-fragalysis-2/maxwin/BulkDock/SCRATCH/511020/C65608-P146/C65608-P146.minimised.mol

>  <scratch_subdir>  (436) 
/opt/xchem-fragalysis-2/maxwin/BulkDock/SCRATCH/511020/C65608-P146

>  <fragmenstein_runtime>  (436) 
16.51715922355652

>  <fragmenstein_outcome>  (436) 
too moved

>  <fragmenstein_mode>  (436) 
expansion

>  <fragmenstein_error>  (436) 


$$$$
C65609-P44
     RDKit          3D

 50 52  0  0  0  0  0  0  0  0999 V2000
    1.7643    3.7272   27.4324 C   0  0  0  0  0  0  0  0  0  0  0  0
    2.1781    2.2720   27.1179 C   0  0  0  0  0  0  0  0  0  0  0  0
    0.8883    1.4189   27.1341 C   0  0  0  0  0  0  0  0  0  0  0  0
    3.0279    1.7972   28.3253 C   0  0  0  0  0  0  0  0  0  0  0  0
    2.9901    2.2204   25.8429 N   0  0  0  0  0  0  0  0  0  0  0  0
    2.4023    2.8654   24.6571 C   0  0  0  0  0  0  0  0  0  0  0  0
    3.0419    2.6857   23.2407 C   0  0  0  0  0  0  0  0  0  0  0  0
    4.3184    1.7427   23.0542 C   0  0  0  0  0  0  0  0  0  0  0  0
    4.7150    0.9866   21.3311 N   0  0  0  0  0  0  0  0  0  0  0  0
    6.3485    0.4520   20.1703 C   0  0  0  0  0  0  0  0  0  0  0  0
    7.5204    1.0831   18.9938 C   0  0  0  0  0  0  0  0  0  0  0  0
    8.1902    2.3226   18.9820 C   0  0  0  0  0  0  0  0  0  0  0  0
    9.0527    2.7235   17.9291 C   0  0  0  0  0  0  0  0  0  0  0  0
    9.3114    1.8620   16.8788 C   0  0  0  0  0  0  0  0  0  0  0  0
    8.6776    0.6460   16.8470 C   0  0  0  0  0  0  0  0  0  0  0  0
    7.7773    0.3213   17.8637 C   0  0  0  0  0  0  0  0  0  0  0  0
    8.9525   -0.0248   15.5414 C   0  0  0  0  0  0  0  0  0  0  0  0
   10.1349    0.6882   15.0157 N   0  0  0  0  0  0  0  0  0  0  0  0
   10.0722    2.0454   15.6060 C   0  0  0  0  0  0  0  0  0  0  0  0
    4.6220    0.9346   24.4205 C   0  0  0  0  0  0  0  0  0  0  0  0
    3.6125    0.9356   25.5628 C   0  0  0  0  0  0  0  0  0  0  0  0
    2.6361    4.3919   27.4447 H   0  0  0  0  0  0  0  0  0  0  0  0
    1.0499    4.1168   26.6988 H   0  0  0  0  0  0  0  0  0  0  0  0
    1.2817    3.8044   28.4142 H   0  0  0  0  0  0  0  0  0  0  0  0
    0.1749    1.7513   26.3748 H   0  0  0  0  0  0  0  0  0  0  0  0
    0.3766    1.5033   28.1010 H   0  0  0  0  0  0  0  0  0  0  0  0
    1.1050    0.3570   26.9863 H   0  0  0  0  0  0  0  0  0  0  0  0
    3.9977    2.3079   28.3508 H   0  0  0  0  0  0  0  0  0  0  0  0
    2.5244    2.0139   29.2755 H   0  0  0  0  0  0  0  0  0  0  0  0
    3.2061    0.7166   28.3099 H   0  0  0  0  0  0  0  0  0  0  0  0
    2.4221    3.9467   24.8486 H   0  0  0  0  0  0  0  0  0  0  0  0
    1.3369    2.6370   24.5706 H   0  0  0  0  0  0  0  0  0  0  0  0
    2.3317    2.5451   22.4382 H   0  0  0  0  0  0  0  0  0  0  0  0
    3.3655    3.7136   22.9861 H   0  0  0  0  0  0  0  0  0  0  0  0
    4.8984    2.6927   23.1271 H   0  0  0  0  0  0  0  0  0  0  0  0
    4.3662    0.0681   21.6393 H   0  0  0  0  0  0  0  0  0  0  0  0
    6.8971    1.3619   20.6249 H   0  0  0  0  0  0  0  0  0  0  0  0
    6.7472   -0.5831   20.3334 H   0  0  0  0  0  0  0  0  0  0  0  0
    7.9859    3.0656   19.7301 H   0  0  0  0  0  0  0  0  0  0  0  0
    9.4909    3.7175   17.9474 H   0  0  0  0  0  0  0  0  0  0  0  0
    6.9338   -0.3201   17.6186 H   0  0  0  0  0  0  0  0  0  0  0  0
    8.0969    0.0964   14.8682 H   0  0  0  0  0  0  0  0  0  0  0  0
    9.1813   -1.0856   15.6653 H   0  0  0  0  0  0  0  0  0  0  0  0
   10.0715    0.7288   14.0001 H   0  0  0  0  0  0  0  0  0  0  0  0
    9.5171    2.7168   14.9408 H   0  0  0  0  0  0  0  0  0  0  0  0
   11.0779    2.4393   15.7553 H   0  0  0  0  0  0  0  0  0  0  0  0
    5.5163    1.3481   24.9059 H   0  0  0  0  0  0  0  0  0  0  0  0
    4.8738   -0.1049   24.1910 H   0  0  0  0  0  0  0  0  0  0  0  0
    4.1973    0.6204   26.4351 H   0  0  0  0  0  0  0  0  0  0  0  0
    2.9107    0.1203   25.4289 H   0  0  0  0  0  0  0  0  0  0  0  0
  1  2  1  0
  2  3  1  0
  2  4  1  0
  2  5  1  0
  5  6  1  0
  6  7  1  0
  7  8  1  0
  8  9  1  0
  9 10  1  0
 10 11  1  0
 11 12  2  0
 12 13  1  0
 13 14  2  0
 14 15  1  0
 15 16  2  0
 15 17  1  0
 17 18  1  0
 18 19  1  0
  8 20  1  0
 20 21  1  0
 21  5  1  0
 16 11  1  0
 19 14  1  0
  1 22  1  0
  1 23  1  0
  1 24  1  0
  3 25  1  0
  3 26  1  0
  3 27  1  0
  4 28  1  0
  4 29  1  0
  4 30  1  0
  6 31  1  0
  6 32  1  0
  7 33  1  0
  7 34  1  0
  8 35  1  0
  9 36  1  0
 10 37  1  0
 10 38  1  0
 12 39  1  0
 13 40  1  0
 16 41  1  0
 17 42  1  0
 17 43  1  0
 18 44  1  0
 19 45  1  0
 19 46  1  0
 20 47  1  0
 20 48  1  0
 21 49  1  0
 21 50  1  0
M  END
>  <Energy>  (437) 
361.66996046352625

>  <compound_id>  (437) 
65609

>  <target_id>  (437) 
1

>  <reference_id>  (437) 
44

>  <inspiration_ids>  (437) 
[44, 146]

>  <energy_score>  (437) 
291.8598751556512

>  <distance_score>  (437) 
6.202626881833705

>  <path>  (437) 
/opt/xchem-fragalysis-2/maxwin/BulkDock/SCRATCH/511020/C65609-P44/C65609-P44.minimised.mol

>  <scratch_subdir>  (437) 
/opt/xchem-fragalysis-2/maxwin/BulkDock/SCRATCH/511020/C65609-P44

>  <fragmenstein_runtime>  (437) 
15.025218486785889

>  <fragmenstein_outcome>  (437) 
too moved

>  <fragmenstein_mode>  (437) 
expansion

>  <fragmenstein_error>  (437) 


$$$$
C65609-P146
     RDKit          3D

 50 52  0  0  0  0  0  0  0  0999 V2000
    0.8462   -0.6815   28.5303 C   0  0  0  0  0  0  0  0  0  0  0  0
    1.1226    0.7536   29.0177 C   0  0  0  0  0  0  0  0  0  0  0  0
    0.9490    0.7734   30.5540 C   0  0  0  0  0  0  0  0  0  0  0  0
    0.0011    1.6544   28.4495 C   0  0  0  0  0  0  0  0  0  0  0  0
    2.4978    1.2636   28.6799 N   0  0  0  0  0  0  0  0  0  0  0  0
    3.5777    0.3001   28.9652 C   0  0  0  0  0  0  0  0  0  0  0  0
    4.9900    0.8632   28.7082 C   0  0  0  0  0  0  0  0  0  0  0  0
    5.1432    1.3321   27.2564 C   0  0  0  0  0  0  0  0  0  0  0  0
    6.4803    1.8963   26.8871 N   0  0  0  0  0  0  0  0  0  0  0  0
    7.6296    0.9510   27.0860 C   0  0  0  0  0  0  0  0  0  0  0  0
    8.9222    1.1800   26.2531 C   0  0  0  0  0  0  0  0  0  0  0  0
    9.2388    2.4058   25.6317 C   0  0  0  0  0  0  0  0  0  0  0  0
   10.3523    2.5508   24.7724 C   0  0  0  0  0  0  0  0  0  0  0  0
   11.1979    1.4755   24.5780 C   0  0  0  0  0  0  0  0  0  0  0  0
   10.9689    0.2864   25.2523 C   0  0  0  0  0  0  0  0  0  0  0  0
    9.8439    0.1152   26.0700 C   0  0  0  0  0  0  0  0  0  0  0  0
   12.1247   -0.6299   25.0126 C   0  0  0  0  0  0  0  0  0  0  0  0
   12.9384   -0.0095   23.9293 N   0  0  0  0  0  0  0  0  0  0  0  0
   12.4496    1.3786   23.7714 C   0  0  0  0  0  0  0  0  0  0  0  0
    4.0275    2.3672   27.0180 C   0  0  0  0  0  0  0  0  0  0  0  0
    2.6388    1.7717   27.3046 C   0  0  0  0  0  0  0  0  0  0  0  0
    1.4708   -1.4213   29.0424 H   0  0  0  0  0  0  0  0  0  0  0  0
   -0.1960   -0.9686   28.7153 H   0  0  0  0  0  0  0  0  0  0  0  0
    1.0228   -0.7742   27.4557 H   0  0  0  0  0  0  0  0  0  0  0  0
    1.6234    0.0736   31.0581 H   0  0  0  0  0  0  0  0  0  0  0  0
   -0.0711    0.4918   30.8423 H   0  0  0  0  0  0  0  0  0  0  0  0
    1.1394    1.7742   30.9593 H   0  0  0  0  0  0  0  0  0  0  0  0
   -0.0609    1.5944   27.3571 H   0  0  0  0  0  0  0  0  0  0  0  0
   -0.9820    1.3550   28.8337 H   0  0  0  0  0  0  0  0  0  0  0  0
    0.1498    2.7029   28.7330 H   0  0  0  0  0  0  0  0  0  0  0  0
    3.5435   -0.0099   30.0145 H   0  0  0  0  0  0  0  0  0  0  0  0
    3.4658   -0.6040   28.3537 H   0  0  0  0  0  0  0  0  0  0  0  0
    5.7212    0.0782   28.9339 H   0  0  0  0  0  0  0  0  0  0  0  0
    5.1881    1.6921   29.4001 H   0  0  0  0  0  0  0  0  0  0  0  0
    4.9611    0.4790   26.5891 H   0  0  0  0  0  0  0  0  0  0  0  0
    6.6604    2.7220   27.4589 H   0  0  0  0  0  0  0  0  0  0  0  0
    7.9136    0.9597   28.1449 H   0  0  0  0  0  0  0  0  0  0  0  0
    7.2820   -0.0601   26.8387 H   0  0  0  0  0  0  0  0  0  0  0  0
    8.5786    3.2601   25.7724 H   0  0  0  0  0  0  0  0  0  0  0  0
   10.5405    3.5035   24.2870 H   0  0  0  0  0  0  0  0  0  0  0  0
    9.6800   -0.8401   26.5634 H   0  0  0  0  0  0  0  0  0  0  0  0
   11.7960   -1.6372   24.7412 H   0  0  0  0  0  0  0  0  0  0  0  0
   12.7365   -0.6941   25.9189 H   0  0  0  0  0  0  0  0  0  0  0  0
   12.6494   -0.5255   23.0876 H   0  0  0  0  0  0  0  0  0  0  0  0
   12.2590    1.5998   22.7165 H   0  0  0  0  0  0  0  0  0  0  0  0
   13.2024    2.0729   24.1579 H   0  0  0  0  0  0  0  0  0  0  0  0
    4.1867    3.2477   27.6551 H   0  0  0  0  0  0  0  0  0  0  0  0
    4.0411    2.7257   25.9839 H   0  0  0  0  0  0  0  0  0  0  0  0
    2.4457    0.9683   26.5875 H   0  0  0  0  0  0  0  0  0  0  0  0
    1.9224    2.5764   27.1119 H   0  0  0  0  0  0  0  0  0  0  0  0
  1  2  1  0
  2  3  1  0
  2  4  1  0
  2  5  1  0
  5  6  1  0
  6  7  1  0
  7  8  1  0
  8  9  1  0
  9 10  1  0
 10 11  1  0
 11 12  2  0
 12 13  1  0
 13 14  2  0
 14 15  1  0
 15 16  2  0
 15 17  1  0
 17 18  1  0
 18 19  1  0
  8 20  1  0
 20 21  1  0
 21  5  1  0
 16 11  1  0
 19 14  1  0
  1 22  1  0
  1 23  1  0
  1 24  1  0
  3 25  1  0
  3 26  1  0
  3 27  1  0
  4 28  1  0
  4 29  1  0
  4 30  1  0
  6 31  1  0
  6 32  1  0
  7 33  1  0
  7 34  1  0
  8 35  1  0
  9 36  1  0
 10 37  1  0
 10 38  1  0
 12 39  1  0
 13 40  1  0
 16 41  1  0
 17 42  1  0
 17 43  1  0
 18 44  1  0
 19 45  1  0
 19 46  1  0
 20 47  1  0
 20 48  1  0
 21 49  1  0
 21 50  1  0
M  END
>  <Energy>  (438) 
39.47974348716663

>  <compound_id>  (438) 
65609

>  <target_id>  (438) 
1

>  <reference_id>  (438) 
146

>  <inspiration_ids>  (438) 
[44, 146]

>  <energy_score>  (438) 
-30.33034182071333

>  <distance_score>  (438) 
8.469242418825367

>  <path>  (438) 
/opt/xchem-fragalysis-2/maxwin/BulkDock/SCRATCH/511020/C65609-P146/C65609-P146.minimised.mol

>  <scratch_subdir>  (438) 
/opt/xchem-fragalysis-2/maxwin/BulkDock/SCRATCH/511020/C65609-P146

>  <fragmenstein_runtime>  (438) 
19.13075304031372

>  <fragmenstein_outcome>  (438) 
too moved

>  <fragmenstein_mode>  (438) 
expansion

>  <fragmenstein_error>  (438) 


$$$$
C65611-P44
     RDKit          3D

 49 51  0  0  0  0  0  0  0  0999 V2000
    4.9076   -2.5366   28.5376 C   0  0  0  0  0  0  0  0  0  0  0  0
    3.7435   -2.8855   27.5873 C   0  0  0  0  0  0  0  0  0  0  0  0
    2.4225   -2.7192   28.4016 C   0  0  0  0  0  0  0  0  0  0  0  0
    3.8478   -4.3757   27.2296 C   0  0  0  0  0  0  0  0  0  0  0  0
    3.8102   -1.9961   26.4032 N   0  0  0  0  0  0  0  0  0  0  0  0
    3.3221   -0.6537   26.6494 C   0  0  0  0  0  0  0  0  0  0  0  0
    3.7316    0.3487   25.6335 C   0  0  0  0  0  0  0  0  0  0  0  0
    4.5102   -0.2103   24.4747 C   0  0  0  0  0  0  0  0  0  0  0  0
    4.0880   -1.6503   23.3561 C   0  0  0  0  0  0  0  0  0  0  0  0
    5.1852   -0.9325   22.3490 N   0  0  0  0  0  0  0  0  0  0  0  0
    6.3345   -1.6309   20.7906 C   0  0  0  0  0  0  0  0  0  0  0  0
    6.0048   -2.7450   20.5561 O   0  0  0  0  0  0  0  0  0  0  0  0
    8.1462   -1.1314   19.6021 C   0  0  0  0  0  0  0  0  0  0  0  0
    9.7679   -2.4466   20.2712 C   0  0  0  0  0  0  0  0  0  0  0  0
   11.5742   -2.7158   19.0230 C   0  0  0  0  0  0  0  0  0  0  0  0
   11.2944   -1.9514   17.3260 C   0  0  0  0  0  0  0  0  0  0  0  0
    9.8855   -0.8234   16.8457 C   0  0  0  0  0  0  0  0  0  0  0  0
    8.5148   -0.2300   18.0113 C   0  0  0  0  0  0  0  0  0  0  0  0
   10.1130   -0.6136   15.3840 C   0  0  0  0  0  0  0  0  0  0  0  0
   11.5049   -1.0841   15.1004 N   0  0  0  0  0  0  0  0  0  0  0  0
   12.0121   -2.1466   16.0241 C   0  0  0  0  0  0  0  0  0  0  0  0
    4.3913   -2.4287   25.0584 C   0  0  0  0  0  0  0  0  0  0  0  0
    5.8725   -2.6216   28.0237 H   0  0  0  0  0  0  0  0  0  0  0  0
    4.9347   -3.2213   29.3938 H   0  0  0  0  0  0  0  0  0  0  0  0
    4.8350   -1.5230   28.9445 H   0  0  0  0  0  0  0  0  0  0  0  0
    2.3230   -1.7217   28.8424 H   0  0  0  0  0  0  0  0  0  0  0  0
    1.5413   -2.9105   27.7850 H   0  0  0  0  0  0  0  0  0  0  0  0
    2.3910   -3.4298   29.2367 H   0  0  0  0  0  0  0  0  0  0  0  0
    4.8015   -4.6113   26.7433 H   0  0  0  0  0  0  0  0  0  0  0  0
    3.7925   -5.0042   28.1269 H   0  0  0  0  0  0  0  0  0  0  0  0
    3.0358   -4.6935   26.5681 H   0  0  0  0  0  0  0  0  0  0  0  0
    3.6787   -0.2812   27.6170 H   0  0  0  0  0  0  0  0  0  0  0  0
    2.2314   -0.6388   26.7382 H   0  0  0  0  0  0  0  0  0  0  0  0
    4.4086    1.0582   26.1368 H   0  0  0  0  0  0  0  0  0  0  0  0
    2.9278    1.0011   25.3141 H   0  0  0  0  0  0  0  0  0  0  0  0
    5.4981   -0.4049   24.9057 H   0  0  0  0  0  0  0  0  0  0  0  0
    4.6644    0.7047   23.8977 H   0  0  0  0  0  0  0  0  0  0  0  0
    4.9416   -2.2917   23.2272 H   0  0  0  0  0  0  0  0  0  0  0  0
    5.4938   -0.0892   22.5943 H   0  0  0  0  0  0  0  0  0  0  0  0
   10.3482   -2.9794   21.1534 H   0  0  0  0  0  0  0  0  0  0  0  0
   12.4207   -3.3979   19.2520 H   0  0  0  0  0  0  0  0  0  0  0  0
    7.7405    0.3897   17.5705 H   0  0  0  0  0  0  0  0  0  0  0  0
   10.0115    0.4393   15.1129 H   0  0  0  0  0  0  0  0  0  0  0  0
    9.3901   -1.2225   14.8368 H   0  0  0  0  0  0  0  0  0  0  0  0
   11.5365   -1.4184   14.1374 H   0  0  0  0  0  0  0  0  0  0  0  0
   13.0921   -2.0445   16.1513 H   0  0  0  0  0  0  0  0  0  0  0  0
   11.7678   -3.1348   15.6236 H   0  0  0  0  0  0  0  0  0  0  0  0
    5.4802   -2.5068   25.1840 H   0  0  0  0  0  0  0  0  0  0  0  0
    4.0131   -3.4433   24.9365 H   0  0  0  0  0  0  0  0  0  0  0  0
  1  2  1  0
  2  3  1  0
  2  4  1  0
  2  5  1  0
  5  6  1  0
  6  7  1  0
  7  8  1  0
  8  9  1  0
  9 10  1  0
 10 11  1  0
 11 12  2  0
 11 13  1  0
 13 14  2  0
 14 15  1  0
 15 16  2  0
 16 17  1  0
 17 18  2  0
 17 19  1  0
 19 20  1  0
 20 21  1  0
  9 22  1  0
 22  5  1  0
 18 13  1  0
 21 16  1  0
  1 23  1  0
  1 24  1  0
  1 25  1  0
  3 26  1  0
  3 27  1  0
  3 28  1  0
  4 29  1  0
  4 30  1  0
  4 31  1  0
  6 32  1  0
  6 33  1  0
  7 34  1  0
  7 35  1  0
  8 36  1  0
  8 37  1  0
  9 38  1  0
 10 39  1  0
 14 40  1  0
 15 41  1  0
 18 42  1  0
 19 43  1  0
 19 44  1  0
 20 45  1  0
 21 46  1  0
 21 47  1  0
 22 48  1  0
 22 49  1  0
M  END
>  <Energy>  (439) 
1416.3096955819444

>  <compound_id>  (439) 
65611

>  <target_id>  (439) 
1

>  <reference_id>  (439) 
44

>  <inspiration_ids>  (439) 
[44, 146]

>  <energy_score>  (439) 
1321.674903692256

>  <distance_score>  (439) 
5.611250722074839

>  <path>  (439) 
/opt/xchem-fragalysis-2/maxwin/BulkDock/SCRATCH/511020/C65611-P44/C65611-P44.minimised.mol

>  <scratch_subdir>  (439) 
/opt/xchem-fragalysis-2/maxwin/BulkDock/SCRATCH/511020/C65611-P44

>  <fragmenstein_runtime>  (439) 
13.196442127227783

>  <fragmenstein_outcome>  (439) 
too moved

>  <fragmenstein_mode>  (439) 
expansion

>  <fragmenstein_error>  (439) 


$$$$
C65611-P146
     RDKit          3D

 49 51  0  0  0  0  0  0  0  0999 V2000
    5.2194    0.0530   27.1311 C   0  0  0  0  0  0  0  0  0  0  0  0
    4.0923   -0.7121   26.3895 C   0  0  0  0  0  0  0  0  0  0  0  0
    2.8997   -0.7581   27.3996 C   0  0  0  0  0  0  0  0  0  0  0  0
    4.5920   -2.1623   26.2241 C   0  0  0  0  0  0  0  0  0  0  0  0
    3.6736   -0.0752   25.0786 N   0  0  0  0  0  0  0  0  0  0  0  0
    3.3739    1.3473   25.2554 C   0  0  0  0  0  0  0  0  0  0  0  0
    2.9146    2.1692   24.0533 C   0  0  0  0  0  0  0  0  0  0  0  0
    3.4006    1.9304   22.5336 C   0  0  0  0  0  0  0  0  0  0  0  0
    4.4624    0.3626   21.7478 C   0  0  0  0  0  0  0  0  0  0  0  0
    6.0684   -0.2083   21.0882 N   0  0  0  0  0  0  0  0  0  0  0  0
    6.9253   -2.1045   20.8974 C   0  0  0  0  0  0  0  0  0  0  0  0
    6.0566   -2.9308   21.1425 O   0  0  0  0  0  0  0  0  0  0  0  0
    8.9590   -3.2749   20.7960 C   0  0  0  0  0  0  0  0  0  0  0  0
   10.7049   -3.3199   21.9236 C   0  0  0  0  0  0  0  0  0  0  0  0
   12.3927   -3.6316   22.5675 C   0  0  0  0  0  0  0  0  0  0  0  0
   13.3558   -3.9191   21.7235 C   0  0  0  0  0  0  0  0  0  0  0  0
   12.6190   -3.8577   20.6602 C   0  0  0  0  0  0  0  0  0  0  0  0
   10.9139   -3.5457   20.8933 C   0  0  0  0  0  0  0  0  0  0  0  0
   13.4129   -4.1323   19.4333 C   0  0  0  0  0  0  0  0  0  0  0  0
   14.8241   -4.1306   19.9227 N   0  0  0  0  0  0  0  0  0  0  0  0
   14.7476   -4.1754   21.4242 C   0  0  0  0  0  0  0  0  0  0  0  0
    4.6155   -0.3601   23.7518 C   0  0  0  0  0  0  0  0  0  0  0  0
    6.0922    0.2045   26.4887 H   0  0  0  0  0  0  0  0  0  0  0  0
    5.5658   -0.5106   28.0066 H   0  0  0  0  0  0  0  0  0  0  0  0
    4.8953    1.0277   27.5095 H   0  0  0  0  0  0  0  0  0  0  0  0
    2.5773    0.2399   27.7124 H   0  0  0  0  0  0  0  0  0  0  0  0
    2.0322   -1.2806   27.0020 H   0  0  0  0  0  0  0  0  0  0  0  0
    3.1919   -1.2875   28.3154 H   0  0  0  0  0  0  0  0  0  0  0  0
    5.5007   -2.2090   25.6166 H   0  0  0  0  0  0  0  0  0  0  0  0
    4.8494   -2.6022   27.1960 H   0  0  0  0  0  0  0  0  0  0  0  0
    3.8556   -2.8301   25.7774 H   0  0  0  0  0  0  0  0  0  0  0  0
    4.1789    1.8868   25.7533 H   0  0  0  0  0  0  0  0  0  0  0  0
    2.5777    1.4584   26.0016 H   0  0  0  0  0  0  0  0  0  0  0  0
    3.2221    3.1985   24.3183 H   0  0  0  0  0  0  0  0  0  0  0  0
    1.8356    2.3311   24.0745 H   0  0  0  0  0  0  0  0  0  0  0  0
    3.6777    3.0048   22.4937 H   0  0  0  0  0  0  0  0  0  0  0  0
    2.5611    1.9969   21.8174 H   0  0  0  0  0  0  0  0  0  0  0  0
    5.2359    0.9976   22.0560 H   0  0  0  0  0  0  0  0  0  0  0  0
    6.8152    0.5340   20.7600 H   0  0  0  0  0  0  0  0  0  0  0  0
   10.7186   -2.9332   23.0891 H   0  0  0  0  0  0  0  0  0  0  0  0
   12.5568   -3.4058   23.6226 H   0  0  0  0  0  0  0  0  0  0  0  0
   11.0215   -4.9306   20.8098 H   0  0  0  0  0  0  0  0  0  0  0  0
   13.2901   -3.3741   18.6558 H   0  0  0  0  0  0  0  0  0  0  0  0
   13.1716   -5.1027   19.0141 H   0  0  0  0  0  0  0  0  0  0  0  0
   15.2190   -3.2215   19.6839 H   0  0  0  0  0  0  0  0  0  0  0  0
   15.4109   -3.4170   21.8506 H   0  0  0  0  0  0  0  0  0  0  0  0
   15.0552   -5.1670   21.7700 H   0  0  0  0  0  0  0  0  0  0  0  0
    4.5454   -1.4577   23.6125 H   0  0  0  0  0  0  0  0  0  0  0  0
    5.5415   -0.1631   24.2934 H   0  0  0  0  0  0  0  0  0  0  0  0
  1  2  1  0
  2  3  1  0
  2  4  1  0
  2  5  1  0
  5  6  1  0
  6  7  1  0
  7  8  1  0
  8  9  1  0
  9 10  1  0
 10 11  1  0
 11 12  2  0
 11 13  1  0
 13 14  2  0
 14 15  1  0
 15 16  2  0
 16 17  1  0
 17 18  2  0
 17 19  1  0
 19 20  1  0
 20 21  1  0
  9 22  1  0
 22  5  1  0
 18 13  1  0
 21 16  1  0
  1 23  1  0
  1 24  1  0
  1 25  1  0
  3 26  1  0
  3 27  1  0
  3 28  1  0
  4 29  1  0
  4 30  1  0
  4 31  1  0
  6 32  1  0
  6 33  1  0
  7 34  1  0
  7 35  1  0
  8 36  1  0
  8 37  1  0
  9 38  1  0
 10 39  1  0
 14 40  1  0
 15 41  1  0
 18 42  1  0
 19 43  1  0
 19 44  1  0
 20 45  1  0
 21 46  1  0
 21 47  1  0
 22 48  1  0
 22 49  1  0
M  END
>  <Energy>  (440) 
1667.2725319189819

>  <compound_id>  (440) 
65611

>  <target_id>  (440) 
1

>  <reference_id>  (440) 
146

>  <inspiration_ids>  (440) 
[44, 146]

>  <energy_score>  (440) 
1572.6377400292927

>  <distance_score>  (440) 
6.564811319687361

>  <path>  (440) 
/opt/xchem-fragalysis-2/maxwin/BulkDock/SCRATCH/511020/C65611-P146/C65611-P146.minimised.mol

>  <scratch_subdir>  (440) 
/opt/xchem-fragalysis-2/maxwin/BulkDock/SCRATCH/511020/C65611-P146

>  <fragmenstein_runtime>  (440) 
14.550436735153198

>  <fragmenstein_outcome>  (440) 
too moved

>  <fragmenstein_mode>  (440) 
expansion

>  <fragmenstein_error>  (440) 


$$$$
C65613-P44
     RDKit          3D

 45 47  0  0  0  0  0  0  0  0999 V2000
    5.8202   -7.7812   27.8940 N   0  0  0  0  0  0  0  0  0  0  0  0
    5.2218   -7.2735   27.0395 C   0  0  0  0  0  0  0  0  0  0  0  0
    4.3939   -6.6830   25.9537 C   0  0  0  0  0  0  0  0  0  0  0  0
    5.2664   -6.8001   24.6034 C   0  0  0  0  0  0  0  0  0  0  0  0
    6.4660   -5.4799   24.4756 S   0  0  0  0  0  0  0  0  0  0  0  0
    5.7101   -4.2877   24.8062 O   0  0  0  0  0  0  0  0  0  0  0  0
    7.5467   -5.9534   25.3232 O   0  0  0  0  0  0  0  0  0  0  0  0
    7.0008   -5.2733   22.4769 N   0  0  0  0  0  0  0  0  0  0  0  0
    8.1304   -4.4575   20.9474 C   0  0  0  0  0  0  0  0  0  0  0  0
   10.1691   -5.0489   21.0300 C   0  0  0  0  0  0  0  0  0  0  0  0
   11.2324   -4.2807   22.0954 C   0  0  0  0  0  0  0  0  0  0  0  0
   12.6326   -4.0992   22.1879 C   0  0  0  0  0  0  0  0  0  0  0  0
   13.3135   -4.4661   21.0978 C   0  0  0  0  0  0  0  0  0  0  0  0
   12.6153   -5.1454   20.1190 C   0  0  0  0  0  0  0  0  0  0  0  0
   11.1552   -5.5382   20.1752 C   0  0  0  0  0  0  0  0  0  0  0  0
   13.4872   -4.9904   18.8785 C   0  0  0  0  0  0  0  0  0  0  0  0
   14.4223   -3.8587   19.1500 N   0  0  0  0  0  0  0  0  0  0  0  0
   14.6239   -3.9571   20.6069 C   0  0  0  0  0  0  0  0  0  0  0  0
    3.8892   -5.2760   26.4280 C   0  0  0  0  0  0  0  0  0  0  0  0
    2.8475   -5.3044   27.5581 C   0  0  0  0  0  0  0  0  0  0  0  0
    1.7035   -6.2646   27.2817 C   0  0  0  0  0  0  0  0  0  0  0  0
    2.1944   -7.5901   26.9320 N   0  0  0  0  0  0  0  0  0  0  0  0
    3.1240   -7.5650   25.7889 C   0  0  0  0  0  0  0  0  0  0  0  0
    5.8368   -7.7383   24.6009 H   0  0  0  0  0  0  0  0  0  0  0  0
    4.6490   -6.8455   23.7310 H   0  0  0  0  0  0  0  0  0  0  0  0
    6.7756   -4.2948   22.7777 H   0  0  0  0  0  0  0  0  0  0  0  0
    7.4749   -4.6160   20.0698 H   0  0  0  0  0  0  0  0  0  0  0  0
    7.8072   -3.4449   21.1986 H   0  0  0  0  0  0  0  0  0  0  0  0
   10.8601   -3.7150   22.9674 H   0  0  0  0  0  0  0  0  0  0  0  0
   13.0665   -3.4972   22.9788 H   0  0  0  0  0  0  0  0  0  0  0  0
   10.7317   -5.5727   19.1638 H   0  0  0  0  0  0  0  0  0  0  0  0
   12.9255   -4.7821   17.9661 H   0  0  0  0  0  0  0  0  0  0  0  0
   14.1099   -5.8734   18.8130 H   0  0  0  0  0  0  0  0  0  0  0  0
   13.8846   -3.0120   18.9779 H   0  0  0  0  0  0  0  0  0  0  0  0
   15.4273   -4.6628   20.8435 H   0  0  0  0  0  0  0  0  0  0  0  0
   14.8717   -2.9747   21.0208 H   0  0  0  0  0  0  0  0  0  0  0  0
    3.4405   -4.7399   25.5896 H   0  0  0  0  0  0  0  0  0  0  0  0
    4.7216   -4.6773   26.8156 H   0  0  0  0  0  0  0  0  0  0  0  0
    2.4537   -4.2938   27.7171 H   0  0  0  0  0  0  0  0  0  0  0  0
    3.3429   -5.5935   28.4939 H   0  0  0  0  0  0  0  0  0  0  0  0
    1.0655   -6.3402   28.1692 H   0  0  0  0  0  0  0  0  0  0  0  0
    1.0607   -5.9105   26.4745 H   0  0  0  0  0  0  0  0  0  0  0  0
    2.6633   -8.0013   27.7449 H   0  0  0  0  0  0  0  0  0  0  0  0
    2.5543   -7.2438   24.9119 H   0  0  0  0  0  0  0  0  0  0  0  0
    3.4193   -8.6029   25.5860 H   0  0  0  0  0  0  0  0  0  0  0  0
  1  2  3  0
  2  3  1  0
  3  4  1  0
  4  5  1  0
  5  6  2  0
  5  7  2  0
  5  8  1  0
  8  9  1  0
  9 10  1  0
 10 11  2  0
 11 12  1  0
 12 13  2  0
 13 14  1  0
 14 15  2  0
 14 16  1  0
 16 17  1  0
 17 18  1  0
  3 19  1  0
 19 20  1  0
 20 21  1  0
 21 22  1  0
 22 23  1  0
 23  3  1  0
 15 10  1  0
 18 13  1  0
  4 24  1  0
  4 25  1  0
  8 26  1  0
  9 27  1  0
  9 28  1  0
 11 29  1  0
 12 30  1  0
 15 31  1  0
 16 32  1  0
 16 33  1  0
 17 34  1  0
 18 35  1  0
 18 36  1  0
 19 37  1  0
 19 38  1  0
 20 39  1  0
 20 40  1  0
 21 41  1  0
 21 42  1  0
 22 43  1  0
 23 44  1  0
 23 45  1  0
M  END
>  <Energy>  (441) 
321.89777579874129

>  <compound_id>  (441) 
65613

>  <target_id>  (441) 
1

>  <reference_id>  (441) 
44

>  <inspiration_ids>  (441) 
[44, 146]

>  <energy_score>  (441) 
342.12838192923016

>  <distance_score>  (441) 
8.010944773130038

>  <path>  (441) 
/opt/xchem-fragalysis-2/maxwin/BulkDock/SCRATCH/511020/C65613-P44/C65613-P44.minimised.mol

>  <scratch_subdir>  (441) 
/opt/xchem-fragalysis-2/maxwin/BulkDock/SCRATCH/511020/C65613-P44

>  <fragmenstein_runtime>  (441) 
6.210261106491089

>  <fragmenstein_outcome>  (441) 
too moved

>  <fragmenstein_mode>  (441) 
expansion

>  <fragmenstein_error>  (441) 


$$$$
C65613-P146
     RDKit          3D

 45 47  0  0  0  0  0  0  0  0999 V2000
    4.6011    8.1144   22.7956 N   0  0  0  0  0  0  0  0  0  0  0  0
    4.3144    7.0031   22.6271 C   0  0  0  0  0  0  0  0  0  0  0  0
    3.9314    5.5681   22.4057 C   0  0  0  0  0  0  0  0  0  0  0  0
    4.7664    5.2693   20.9155 C   0  0  0  0  0  0  0  0  0  0  0  0
    6.7652    5.0744   20.7571 S   0  0  0  0  0  0  0  0  0  0  0  0
    7.2783    4.3211   21.8720 O   0  0  0  0  0  0  0  0  0  0  0  0
    7.3020    6.3963   20.4960 O   0  0  0  0  0  0  0  0  0  0  0  0
    7.2917    4.1507   19.2124 N   0  0  0  0  0  0  0  0  0  0  0  0
    8.6984    3.3054   19.1986 C   0  0  0  0  0  0  0  0  0  0  0  0
    9.2351    2.3536   17.9291 C   0  0  0  0  0  0  0  0  0  0  0  0
    8.8436    1.0056   17.7653 C   0  0  0  0  0  0  0  0  0  0  0  0
    9.2501    0.1871   16.6523 C   0  0  0  0  0  0  0  0  0  0  0  0
   10.1852    0.6200   15.7537 C   0  0  0  0  0  0  0  0  0  0  0  0
   10.6418    1.9107   15.8879 C   0  0  0  0  0  0  0  0  0  0  0  0
   10.1870    2.7696   16.9472 C   0  0  0  0  0  0  0  0  0  0  0  0
   11.5693    2.1458   14.7248 C   0  0  0  0  0  0  0  0  0  0  0  0
   11.9117    0.8074   14.1825 N   0  0  0  0  0  0  0  0  0  0  0  0
   10.8139   -0.0720   14.5904 C   0  0  0  0  0  0  0  0  0  0  0  0
    2.3363    5.5428   22.2115 C   0  0  0  0  0  0  0  0  0  0  0  0
    1.5584    4.3115   22.7430 C   0  0  0  0  0  0  0  0  0  0  0  0
    1.9217    3.9538   24.1733 C   0  0  0  0  0  0  0  0  0  0  0  0
    3.3596    3.7086   24.2099 N   0  0  0  0  0  0  0  0  0  0  0  0
    4.1591    4.8922   23.8168 C   0  0  0  0  0  0  0  0  0  0  0  0
    4.2495    4.5597   20.2844 H   0  0  0  0  0  0  0  0  0  0  0  0
    4.6410    6.1950   20.3271 H   0  0  0  0  0  0  0  0  0  0  0  0
    7.3737    4.8743   18.4912 H   0  0  0  0  0  0  0  0  0  0  0  0
    9.4890    4.0459   19.3678 H   0  0  0  0  0  0  0  0  0  0  0  0
    8.6507    2.6329   20.0633 H   0  0  0  0  0  0  0  0  0  0  0  0
    8.1342    0.5921   18.4827 H   0  0  0  0  0  0  0  0  0  0  0  0
    8.8004   -0.7751   16.4582 H   0  0  0  0  0  0  0  0  0  0  0  0
   10.5816    3.7839   16.9882 H   0  0  0  0  0  0  0  0  0  0  0  0
   12.4677    2.7036   14.9917 H   0  0  0  0  0  0  0  0  0  0  0  0
   11.0283    2.7189   13.9615 H   0  0  0  0  0  0  0  0  0  0  0  0
   11.9743    0.8466   13.1691 H   0  0  0  0  0  0  0  0  0  0  0  0
   10.0758   -0.1348   13.7907 H   0  0  0  0  0  0  0  0  0  0  0  0
   11.1855   -1.0661   14.8519 H   0  0  0  0  0  0  0  0  0  0  0  0
    1.9057    6.4217   22.7130 H   0  0  0  0  0  0  0  0  0  0  0  0
    2.1084    5.6709   21.1458 H   0  0  0  0  0  0  0  0  0  0  0  0
    1.7745    3.4670   22.0777 H   0  0  0  0  0  0  0  0  0  0  0  0
    0.4822    4.5056   22.6701 H   0  0  0  0  0  0  0  0  0  0  0  0
    1.6454    4.7585   24.8640 H   0  0  0  0  0  0  0  0  0  0  0  0
    1.3854    3.0528   24.4830 H   0  0  0  0  0  0  0  0  0  0  0  0
    3.6252    3.4079   25.1493 H   0  0  0  0  0  0  0  0  0  0  0  0
    5.2312    4.6932   23.9210 H   0  0  0  0  0  0  0  0  0  0  0  0
    3.9619    5.6387   24.6020 H   0  0  0  0  0  0  0  0  0  0  0  0
  1  2  3  0
  2  3  1  0
  3  4  1  0
  4  5  1  0
  5  6  2  0
  5  7  2  0
  5  8  1  0
  8  9  1  0
  9 10  1  0
 10 11  2  0
 11 12  1  0
 12 13  2  0
 13 14  1  0
 14 15  2  0
 14 16  1  0
 16 17  1  0
 17 18  1  0
  3 19  1  0
 19 20  1  0
 20 21  1  0
 21 22  1  0
 22 23  1  0
 23  3  1  0
 15 10  1  0
 18 13  1  0
  4 24  1  0
  4 25  1  0
  8 26  1  0
  9 27  1  0
  9 28  1  0
 11 29  1  0
 12 30  1  0
 15 31  1  0
 16 32  1  0
 16 33  1  0
 17 34  1  0
 18 35  1  0
 18 36  1  0
 19 37  1  0
 19 38  1  0
 20 39  1  0
 20 40  1  0
 21 41  1  0
 21 42  1  0
 22 43  1  0
 23 44  1  0
 23 45  1  0
M  END
>  <Energy>  (442) 
21.030047618814862

>  <compound_id>  (442) 
65613

>  <target_id>  (442) 
1

>  <reference_id>  (442) 
146

>  <inspiration_ids>  (442) 
[44, 146]

>  <energy_score>  (442) 
36.471241131648526

>  <distance_score>  (442) 
6.037266794545084

>  <path>  (442) 
/opt/xchem-fragalysis-2/maxwin/BulkDock/SCRATCH/511020/C65613-P146/C65613-P146.minimised.mol

>  <scratch_subdir>  (442) 
/opt/xchem-fragalysis-2/maxwin/BulkDock/SCRATCH/511020/C65613-P146

>  <fragmenstein_runtime>  (442) 
4.218257904052734

>  <fragmenstein_outcome>  (442) 
too moved

>  <fragmenstein_mode>  (442) 
expansion

>  <fragmenstein_error>  (442) 


$$$$
C65614-P44
     RDKit          3D

 41 43  0  0  0  0  0  0  0  0999 V2000
   -0.6729   -0.2637   14.3044 N   0  0  0  0  0  0  0  0  0  0  0  0
   -0.4487    0.5743   15.0752 C   0  0  0  0  0  0  0  0  0  0  0  0
   -0.1179    1.5598   16.1122 C   0  0  0  0  0  0  0  0  0  0  0  0
    0.9509    1.0294   17.1197 C   0  0  0  0  0  0  0  0  0  0  0  0
    1.2778    1.8690   17.9036 O   0  0  0  0  0  0  0  0  0  0  0  0
    1.4552   -0.3224   16.9145 N   0  0  0  0  0  0  0  0  0  0  0  0
    2.5642   -1.1981   17.7499 C   0  0  0  0  0  0  0  0  0  0  0  0
    4.3114   -1.7221   17.1899 C   0  0  0  0  0  0  0  0  0  0  0  0
    5.7226   -0.8740   17.2176 C   0  0  0  0  0  0  0  0  0  0  0  0
    6.9077   -0.7760   16.1435 C   0  0  0  0  0  0  0  0  0  0  0  0
    6.8065   -1.5668   14.9946 C   0  0  0  0  0  0  0  0  0  0  0  0
    5.6073   -2.4108   14.7940 C   0  0  0  0  0  0  0  0  0  0  0  0
    4.4695   -2.7498   16.0692 C   0  0  0  0  0  0  0  0  0  0  0  0
    5.2959   -1.9992   13.2485 C   0  0  0  0  0  0  0  0  0  0  0  0
    6.4696   -1.2316   12.7668 N   0  0  0  0  0  0  0  0  0  0  0  0
    7.5305   -1.3537   13.7693 C   0  0  0  0  0  0  0  0  0  0  0  0
   -1.4030    1.9541   16.8701 C   0  0  0  0  0  0  0  0  0  0  0  0
   -1.2670    3.1947   17.7778 C   0  0  0  0  0  0  0  0  0  0  0  0
   -0.3026    4.2519   17.2615 C   0  0  0  0  0  0  0  0  0  0  0  0
   -0.1355    4.1371   15.8183 N   0  0  0  0  0  0  0  0  0  0  0  0
    0.4734    2.8433   15.4440 C   0  0  0  0  0  0  0  0  0  0  0  0
    0.8854   -0.7871   16.2125 H   0  0  0  0  0  0  0  0  0  0  0  0
    2.0309   -2.1657   17.5866 H   0  0  0  0  0  0  0  0  0  0  0  0
    2.2259   -0.9771   18.7198 H   0  0  0  0  0  0  0  0  0  0  0  0
    6.1391   -0.3266   18.0574 H   0  0  0  0  0  0  0  0  0  0  0  0
    7.7092   -0.0615   16.3143 H   0  0  0  0  0  0  0  0  0  0  0  0
    3.7897   -3.6073   15.9722 H   0  0  0  0  0  0  0  0  0  0  0  0
    5.0339   -2.7545   12.5095 H   0  0  0  0  0  0  0  0  0  0  0  0
    4.4513   -1.3192   13.1750 H   0  0  0  0  0  0  0  0  0  0  0  0
    6.8046   -1.5173   11.8506 H   0  0  0  0  0  0  0  0  0  0  0  0
    8.1666   -0.4661   13.8338 H   0  0  0  0  0  0  0  0  0  0  0  0
    8.1082   -2.2639   13.7152 H   0  0  0  0  0  0  0  0  0  0  0  0
   -1.7798    1.0942   17.4246 H   0  0  0  0  0  0  0  0  0  0  0  0
   -2.1917    2.1778   16.1355 H   0  0  0  0  0  0  0  0  0  0  0  0
   -0.9307    2.9082   18.7774 H   0  0  0  0  0  0  0  0  0  0  0  0
   -2.2617    3.6438   17.8902 H   0  0  0  0  0  0  0  0  0  0  0  0
   -0.6938    5.2478   17.4999 H   0  0  0  0  0  0  0  0  0  0  0  0
    0.6700    4.1971   17.7620 H   0  0  0  0  0  0  0  0  0  0  0  0
   -1.0414    4.2482   15.3624 H   0  0  0  0  0  0  0  0  0  0  0  0
    0.3865    2.7754   14.3512 H   0  0  0  0  0  0  0  0  0  0  0  0
    1.5545    2.9168   15.6236 H   0  0  0  0  0  0  0  0  0  0  0  0
  1  2  3  0
  2  3  1  0
  3  4  1  0
  4  5  2  0
  4  6  1  0
  6  7  1  0
  7  8  1  0
  8  9  2  0
  9 10  1  0
 10 11  2  0
 11 12  1  0
 12 13  2  0
 12 14  1  0
 14 15  1  0
 15 16  1  0
  3 17  1  0
 17 18  1  0
 18 19  1  0
 19 20  1  0
 20 21  1  0
 21  3  1  0
 13  8  1  0
 16 11  1  0
  6 22  1  0
  7 23  1  0
  7 24  1  0
  9 25  1  0
 10 26  1  0
 13 27  1  0
 14 28  1  0
 14 29  1  0
 15 30  1  0
 16 31  1  0
 16 32  1  0
 17 33  1  0
 17 34  1  0
 18 35  1  0
 18 36  1  0
 19 37  1  0
 19 38  1  0
 20 39  1  0
 21 40  1  0
 21 41  1  0
M  END
>  <Energy>  (443) 
270.32338323662663

>  <compound_id>  (443) 
65614

>  <target_id>  (443) 
1

>  <reference_id>  (443) 
44

>  <inspiration_ids>  (443) 
[44, 146]

>  <energy_score>  (443) 
204.92429833550483

>  <distance_score>  (443) 
9.48261168398143

>  <path>  (443) 
/opt/xchem-fragalysis-2/maxwin/BulkDock/SCRATCH/511020/C65614-P44/C65614-P44.minimised.mol

>  <scratch_subdir>  (443) 
/opt/xchem-fragalysis-2/maxwin/BulkDock/SCRATCH/511020/C65614-P44

>  <fragmenstein_runtime>  (443) 
9.634785890579224

>  <fragmenstein_outcome>  (443) 
too moved

>  <fragmenstein_mode>  (443) 
expansion

>  <fragmenstein_error>  (443) 


$$$$
C65614-P146
     RDKit          3D

 41 43  0  0  0  0  0  0  0  0999 V2000
    4.3101    4.7992   22.9493 N   0  0  0  0  0  0  0  0  0  0  0  0
    4.0728    3.6874   22.6972 C   0  0  0  0  0  0  0  0  0  0  0  0
    3.8916    1.8184   22.4745 C   0  0  0  0  0  0  0  0  0  0  0  0
    5.4296    0.5718   21.4768 C   0  0  0  0  0  0  0  0  0  0  0  0
    5.1205   -0.5770   21.6260 O   0  0  0  0  0  0  0  0  0  0  0  0
    7.2994    0.6829   20.5403 N   0  0  0  0  0  0  0  0  0  0  0  0
    8.7621   -0.8251   19.9857 C   0  0  0  0  0  0  0  0  0  0  0  0
    9.8690   -2.8809   20.4381 C   0  0  0  0  0  0  0  0  0  0  0  0
   11.1195   -3.4470   21.8080 C   0  0  0  0  0  0  0  0  0  0  0  0
   12.5983   -4.0977   22.4678 C   0  0  0  0  0  0  0  0  0  0  0  0
   13.6472   -4.2336   21.6186 C   0  0  0  0  0  0  0  0  0  0  0  0
   13.2422   -3.8014   20.4306 C   0  0  0  0  0  0  0  0  0  0  0  0
   11.7236   -3.4212   20.4819 C   0  0  0  0  0  0  0  0  0  0  0  0
   14.3568   -3.5388   19.5115 C   0  0  0  0  0  0  0  0  0  0  0  0
   15.5063   -4.1925   20.1842 N   0  0  0  0  0  0  0  0  0  0  0  0
   15.0996   -4.4412   21.6040 C   0  0  0  0  0  0  0  0  0  0  0  0
    2.4214    2.4206   21.5555 C   0  0  0  0  0  0  0  0  0  0  0  0
    1.4480    3.4533   22.2388 C   0  0  0  0  0  0  0  0  0  0  0  0
    1.1620    3.3508   23.7382 C   0  0  0  0  0  0  0  0  0  0  0  0
    2.2115    2.8840   24.6213 N   0  0  0  0  0  0  0  0  0  0  0  0
    3.2090    1.8569   24.1880 C   0  0  0  0  0  0  0  0  0  0  0  0
    7.5002    1.6649   20.3494 H   0  0  0  0  0  0  0  0  0  0  0  0
    8.5637   -0.6229   18.9451 H   0  0  0  0  0  0  0  0  0  0  0  0
    9.4712   -0.0887   20.3771 H   0  0  0  0  0  0  0  0  0  0  0  0
   10.9135   -3.1291   22.8915 H   0  0  0  0  0  0  0  0  0  0  0  0
   12.6700   -4.1551   23.5508 H   0  0  0  0  0  0  0  0  0  0  0  0
   11.6262   -4.7580   20.5649 H   0  0  0  0  0  0  0  0  0  0  0  0
   14.1889   -3.9806   18.5262 H   0  0  0  0  0  0  0  0  0  0  0  0
   14.5424   -2.4643   19.4169 H   0  0  0  0  0  0  0  0  0  0  0  0
   16.3087   -3.5674   20.1723 H   0  0  0  0  0  0  0  0  0  0  0  0
   15.5984   -3.7187   22.2585 H   0  0  0  0  0  0  0  0  0  0  0  0
   15.3724   -5.4587   21.8969 H   0  0  0  0  0  0  0  0  0  0  0  0
    2.6278    2.9633   20.6191 H   0  0  0  0  0  0  0  0  0  0  0  0
    1.9727    1.5650   21.1248 H   0  0  0  0  0  0  0  0  0  0  0  0
    0.4896    3.4080   21.7014 H   0  0  0  0  0  0  0  0  0  0  0  0
    1.8037    4.4700   22.0244 H   0  0  0  0  0  0  0  0  0  0  0  0
    0.8662    4.3521   24.0810 H   0  0  0  0  0  0  0  0  0  0  0  0
    0.2516    2.7708   23.9165 H   0  0  0  0  0  0  0  0  0  0  0  0
    2.7236    3.7093   24.9512 H   0  0  0  0  0  0  0  0  0  0  0  0
    3.9482    2.1084   24.9444 H   0  0  0  0  0  0  0  0  0  0  0  0
    3.0004    0.8714   24.6007 H   0  0  0  0  0  0  0  0  0  0  0  0
  1  2  3  0
  2  3  1  0
  3  4  1  0
  4  5  2  0
  4  6  1  0
  6  7  1  0
  7  8  1  0
  8  9  2  0
  9 10  1  0
 10 11  2  0
 11 12  1  0
 12 13  2  0
 12 14  1  0
 14 15  1  0
 15 16  1  0
  3 17  1  0
 17 18  1  0
 18 19  1  0
 19 20  1  0
 20 21  1  0
 21  3  1  0
 13  8  1  0
 16 11  1  0
  6 22  1  0
  7 23  1  0
  7 24  1  0
  9 25  1  0
 10 26  1  0
 13 27  1  0
 14 28  1  0
 14 29  1  0
 15 30  1  0
 16 31  1  0
 16 32  1  0
 17 33  1  0
 17 34  1  0
 18 35  1  0
 18 36  1  0
 19 37  1  0
 19 38  1  0
 20 39  1  0
 21 40  1  0
 21 41  1  0
M  END
>  <Energy>  (444) 
1633.9740489437811

>  <compound_id>  (444) 
65614

>  <target_id>  (444) 
1

>  <reference_id>  (444) 
146

>  <inspiration_ids>  (444) 
[44, 146]

>  <energy_score>  (444) 
1568.5749640426718

>  <distance_score>  (444) 
6.532669588942963

>  <path>  (444) 
/opt/xchem-fragalysis-2/maxwin/BulkDock/SCRATCH/511020/C65614-P146/C65614-P146.minimised.mol

>  <scratch_subdir>  (444) 
/opt/xchem-fragalysis-2/maxwin/BulkDock/SCRATCH/511020/C65614-P146

>  <fragmenstein_runtime>  (444) 
7.4338319301605225

>  <fragmenstein_outcome>  (444) 
too moved

>  <fragmenstein_mode>  (444) 
expansion

>  <fragmenstein_error>  (444) 


$$$$
C65620-P44
     RDKit          3D

 46 48  0  0  0  0  0  0  0  0999 V2000
    6.5493   -7.5485   22.6699 O   0  0  0  0  0  0  0  0  0  0  0  0
    6.5662   -6.4813   23.2195 C   0  0  0  0  0  0  0  0  0  0  0  0
    7.0692   -5.0107   22.6696 N   0  0  0  0  0  0  0  0  0  0  0  0
    7.9704   -4.4880   20.9734 C   0  0  0  0  0  0  0  0  0  0  0  0
   10.0287   -5.0628   20.9711 C   0  0  0  0  0  0  0  0  0  0  0  0
   11.1838   -4.3321   22.0233 C   0  0  0  0  0  0  0  0  0  0  0  0
   12.5957   -4.2049   22.1144 C   0  0  0  0  0  0  0  0  0  0  0  0
   13.2439   -4.5573   21.0040 C   0  0  0  0  0  0  0  0  0  0  0  0
   12.4763   -5.1674   20.0343 C   0  0  0  0  0  0  0  0  0  0  0  0
   10.9827   -5.5706   20.1266 C   0  0  0  0  0  0  0  0  0  0  0  0
   13.2243   -4.8407   18.7384 C   0  0  0  0  0  0  0  0  0  0  0  0
   14.2171   -3.7809   19.0514 N   0  0  0  0  0  0  0  0  0  0  0  0
   14.5238   -4.0169   20.4684 C   0  0  0  0  0  0  0  0  0  0  0  0
    6.2289   -6.0953   24.7472 N   0  0  0  0  0  0  0  0  0  0  0  0
    4.8028   -5.7605   24.8920 C   0  0  0  0  0  0  0  0  0  0  0  0
    3.8998   -5.5460   26.1511 C   0  0  0  0  0  0  0  0  0  0  0  0
    4.7500   -5.1500   27.3251 C   0  0  0  0  0  0  0  0  0  0  0  0
    5.0970   -3.6418   27.2634 C   0  0  0  0  0  0  0  0  0  0  0  0
    5.8463   -3.1689   28.4992 C   0  0  0  0  0  0  0  0  0  0  0  0
    5.0638   -3.3727   29.5935 F   0  0  0  0  0  0  0  0  0  0  0  0
    5.9271   -6.1362   27.2493 C   0  0  0  0  0  0  0  0  0  0  0  0
    5.9170   -6.9683   25.9099 C   0  0  0  0  0  0  0  0  0  0  0  0
    6.8677   -4.3000   23.3643 H   0  0  0  0  0  0  0  0  0  0  0  0
    7.2869   -4.7006   20.1155 H   0  0  0  0  0  0  0  0  0  0  0  0
    7.7662   -3.4506   21.1720 H   0  0  0  0  0  0  0  0  0  0  0  0
   10.8591   -3.7333   22.8960 H   0  0  0  0  0  0  0  0  0  0  0  0
   13.0531   -3.6154   22.9012 H   0  0  0  0  0  0  0  0  0  0  0  0
   10.5318   -5.6069   19.1249 H   0  0  0  0  0  0  0  0  0  0  0  0
   12.5752   -4.5169   17.9222 H   0  0  0  0  0  0  0  0  0  0  0  0
   13.7982   -5.7157   18.5014 H   0  0  0  0  0  0  0  0  0  0  0  0
   15.0464   -3.9472   18.4871 H   0  0  0  0  0  0  0  0  0  0  0  0
   14.8174   -3.0804   20.9514 H   0  0  0  0  0  0  0  0  0  0  0  0
   15.3241   -4.7560   20.5856 H   0  0  0  0  0  0  0  0  0  0  0  0
    4.2770   -6.4718   24.2601 H   0  0  0  0  0  0  0  0  0  0  0  0
    4.8775   -4.7264   24.5998 H   0  0  0  0  0  0  0  0  0  0  0  0
    3.3663   -6.4795   26.3793 H   0  0  0  0  0  0  0  0  0  0  0  0
    3.1190   -4.8094   25.9430 H   0  0  0  0  0  0  0  0  0  0  0  0
    4.1893   -5.3258   28.2519 H   0  0  0  0  0  0  0  0  0  0  0  0
    5.6996   -3.4211   26.3757 H   0  0  0  0  0  0  0  0  0  0  0  0
    4.1660   -3.0676   27.1831 H   0  0  0  0  0  0  0  0  0  0  0  0
    6.7873   -3.7042   28.6483 H   0  0  0  0  0  0  0  0  0  0  0  0
    6.0596   -2.0980   28.4357 H   0  0  0  0  0  0  0  0  0  0  0  0
    5.8620   -6.8441   28.0846 H   0  0  0  0  0  0  0  0  0  0  0  0
    6.8868   -5.6165   27.3470 H   0  0  0  0  0  0  0  0  0  0  0  0
    5.1237   -7.7275   25.7861 H   0  0  0  0  0  0  0  0  0  0  0  0
    6.8110   -7.6081   25.9706 H   0  0  0  0  0  0  0  0  0  0  0  0
  1  2  2  0
  2  3  1  0
  3  4  1  0
  4  5  1  0
  5  6  2  0
  6  7  1  0
  7  8  2  0
  8  9  1  0
  9 10  2  0
  9 11  1  0
 11 12  1  0
 12 13  1  0
  2 14  1  0
 14 15  1  0
 15 16  1  0
 16 17  1  0
 17 18  1  0
 18 19  1  0
 19 20  1  0
 17 21  1  0
 21 22  1  0
 10  5  1  0
 22 14  1  0
 13  8  1  0
  3 23  1  0
  4 24  1  0
  4 25  1  0
  6 26  1  0
  7 27  1  0
 10 28  1  0
 11 29  1  0
 11 30  1  0
 12 31  1  0
 13 32  1  0
 13 33  1  0
 15 34  1  0
 15 35  1  0
 16 36  1  0
 16 37  1  0
 17 38  1  0
 18 39  1  0
 18 40  1  0
 19 41  1  0
 19 42  1  0
 21 43  1  0
 21 44  1  0
 22 45  1  0
 22 46  1  0
M  END
>  <Energy>  (445) 
361.95440372180332

>  <compound_id>  (445) 
65620

>  <target_id>  (445) 
1

>  <reference_id>  (445) 
44

>  <inspiration_ids>  (445) 
[44, 146]

>  <energy_score>  (445) 
370.6361124003629

>  <distance_score>  (445) 
8.810715253372306

>  <path>  (445) 
/opt/xchem-fragalysis-2/maxwin/BulkDock/SCRATCH/511020/C65620-P44/C65620-P44.minimised.mol

>  <scratch_subdir>  (445) 
/opt/xchem-fragalysis-2/maxwin/BulkDock/SCRATCH/511020/C65620-P44

>  <fragmenstein_runtime>  (445) 
12.558605432510376

>  <fragmenstein_outcome>  (445) 
too moved

>  <fragmenstein_mode>  (445) 
expansion

>  <fragmenstein_error>  (445) 


$$$$
C65620-P146
     RDKit          3D

 46 48  0  0  0  0  0  0  0  0999 V2000
    5.6725    1.0430   22.1665 O   0  0  0  0  0  0  0  0  0  0  0  0
    5.1597    0.8203   21.2647 C   0  0  0  0  0  0  0  0  0  0  0  0
    6.4544    0.2421   19.9022 N   0  0  0  0  0  0  0  0  0  0  0  0
    7.9481    0.1936   19.9035 C   0  0  0  0  0  0  0  0  0  0  0  0
    8.5703    1.1656   18.8211 C   0  0  0  0  0  0  0  0  0  0  0  0
    9.0601    2.4277   19.2282 C   0  0  0  0  0  0  0  0  0  0  0  0
    9.8242    3.2320   18.3629 C   0  0  0  0  0  0  0  0  0  0  0  0
   10.0904    2.7785   17.0821 C   0  0  0  0  0  0  0  0  0  0  0  0
    9.5745    1.5736   16.6382 C   0  0  0  0  0  0  0  0  0  0  0  0
    8.7947    0.7882   17.4728 C   0  0  0  0  0  0  0  0  0  0  0  0
   10.0068    1.3364   15.2268 C   0  0  0  0  0  0  0  0  0  0  0  0
   11.0800    2.3303   14.9770 N   0  0  0  0  0  0  0  0  0  0  0  0
   10.8548    3.4152   15.9684 C   0  0  0  0  0  0  0  0  0  0  0  0
    3.3526    1.3638   21.4376 N   0  0  0  0  0  0  0  0  0  0  0  0
    2.6347    3.0488   20.9764 C   0  0  0  0  0  0  0  0  0  0  0  0
    1.1348    3.4984   20.8550 C   0  0  0  0  0  0  0  0  0  0  0  0
    0.3962    3.5790   22.1658 C   0  0  0  0  0  0  0  0  0  0  0  0
   -0.3735    4.8986   22.3738 C   0  0  0  0  0  0  0  0  0  0  0  0
   -1.2051    4.9237   23.6490 C   0  0  0  0  0  0  0  0  0  0  0  0
   -0.3791    4.8732   24.7260 F   0  0  0  0  0  0  0  0  0  0  0  0
    1.4952    3.3570   23.1699 C   0  0  0  0  0  0  0  0  0  0  0  0
    2.5147    2.1479   22.7962 C   0  0  0  0  0  0  0  0  0  0  0  0
    5.9492   -0.0457   19.0831 H   0  0  0  0  0  0  0  0  0  0  0  0
    8.2377   -0.7481   19.5306 H   0  0  0  0  0  0  0  0  0  0  0  0
    8.4930    0.5331   20.7890 H   0  0  0  0  0  0  0  0  0  0  0  0
    8.8782    2.7744   20.2445 H   0  0  0  0  0  0  0  0  0  0  0  0
   10.2018    4.1917   18.7026 H   0  0  0  0  0  0  0  0  0  0  0  0
    8.3517   -0.0903   17.0352 H   0  0  0  0  0  0  0  0  0  0  0  0
   10.3882    0.3211   15.0824 H   0  0  0  0  0  0  0  0  0  0  0  0
    9.1790    1.5194   14.5378 H   0  0  0  0  0  0  0  0  0  0  0  0
   11.9657    1.8956   15.2593 H   0  0  0  0  0  0  0  0  0  0  0  0
   10.2565    4.2101   15.5101 H   0  0  0  0  0  0  0  0  0  0  0  0
   11.8061    3.8351   16.3072 H   0  0  0  0  0  0  0  0  0  0  0  0
    2.8906    3.2245   19.9324 H   0  0  0  0  0  0  0  0  0  0  0  0
    3.1376    3.8995   21.5049 H   0  0  0  0  0  0  0  0  0  0  0  0
    0.5707    3.0120   20.0691 H   0  0  0  0  0  0  0  0  0  0  0  0
    1.1974    4.5259   20.4591 H   0  0  0  0  0  0  0  0  0  0  0  0
   -0.3561    2.7855   22.2074 H   0  0  0  0  0  0  0  0  0  0  0  0
    0.3342    5.7361   22.3942 H   0  0  0  0  0  0  0  0  0  0  0  0
   -1.0419    5.0580   21.5191 H   0  0  0  0  0  0  0  0  0  0  0  0
   -1.7846    5.8488   23.7159 H   0  0  0  0  0  0  0  0  0  0  0  0
   -1.8904    4.0727   23.7018 H   0  0  0  0  0  0  0  0  0  0  0  0
    1.0607    3.1195   24.1497 H   0  0  0  0  0  0  0  0  0  0  0  0
    2.0657    4.2835   23.3340 H   0  0  0  0  0  0  0  0  0  0  0  0
    3.4068    2.7318   23.0739 H   0  0  0  0  0  0  0  0  0  0  0  0
    2.6463    1.6175   23.7581 H   0  0  0  0  0  0  0  0  0  0  0  0
  1  2  2  0
  2  3  1  0
  3  4  1  0
  4  5  1  0
  5  6  2  0
  6  7  1  0
  7  8  2  0
  8  9  1  0
  9 10  2  0
  9 11  1  0
 11 12  1  0
 12 13  1  0
  2 14  1  0
 14 15  1  0
 15 16  1  0
 16 17  1  0
 17 18  1  0
 18 19  1  0
 19 20  1  0
 17 21  1  0
 21 22  1  0
 10  5  1  0
 22 14  1  0
 13  8  1  0
  3 23  1  0
  4 24  1  0
  4 25  1  0
  6 26  1  0
  7 27  1  0
 10 28  1  0
 11 29  1  0
 11 30  1  0
 12 31  1  0
 13 32  1  0
 13 33  1  0
 15 34  1  0
 15 35  1  0
 16 36  1  0
 16 37  1  0
 17 38  1  0
 18 39  1  0
 18 40  1  0
 19 41  1  0
 19 42  1  0
 21 43  1  0
 21 44  1  0
 22 45  1  0
 22 46  1  0
M  END
>  <Energy>  (446) 
522.40702453895881

>  <compound_id>  (446) 
65620

>  <target_id>  (446) 
1

>  <reference_id>  (446) 
146

>  <inspiration_ids>  (446) 
[44, 146]

>  <energy_score>  (446) 
531.0887332175175

>  <distance_score>  (446) 
7.063728611014182

>  <path>  (446) 
/opt/xchem-fragalysis-2/maxwin/BulkDock/SCRATCH/511020/C65620-P146/C65620-P146.minimised.mol

>  <scratch_subdir>  (446) 
/opt/xchem-fragalysis-2/maxwin/BulkDock/SCRATCH/511020/C65620-P146

>  <fragmenstein_runtime>  (446) 
10.36071515083313

>  <fragmenstein_outcome>  (446) 
too moved

>  <fragmenstein_mode>  (446) 
expansion

>  <fragmenstein_error>  (446) 


$$$$
C65621-P44
     RDKit          3D

 41 43  0  0  0  0  0  0  0  0999 V2000
   10.6684   -2.7069   24.8168 O   0  0  0  0  0  0  0  0  0  0  0  0
   11.4829   -1.8415   25.0050 C   0  0  0  0  0  0  0  0  0  0  0  0
   12.9760   -2.0823   24.6550 C   0  0  0  0  0  0  0  0  0  0  0  0
   13.2261   -3.2103   23.6031 C   0  0  0  0  0  0  0  0  0  0  0  0
   13.7958   -2.8781   22.2145 C   0  0  0  0  0  0  0  0  0  0  0  0
   14.7308   -1.8422   22.0067 C   0  0  0  0  0  0  0  0  0  0  0  0
   15.2671   -1.5680   20.7344 C   0  0  0  0  0  0  0  0  0  0  0  0
   14.8665   -2.3408   19.6609 C   0  0  0  0  0  0  0  0  0  0  0  0
   13.9699   -3.3870   19.8426 C   0  0  0  0  0  0  0  0  0  0  0  0
   13.4456   -3.6800   21.1027 C   0  0  0  0  0  0  0  0  0  0  0  0
   13.7174   -4.0383   18.5197 C   0  0  0  0  0  0  0  0  0  0  0  0
   14.2588   -3.0898   17.5115 N   0  0  0  0  0  0  0  0  0  0  0  0
   15.2557   -2.2632   18.2206 C   0  0  0  0  0  0  0  0  0  0  0  0
   11.3160   -0.4753   25.4479 N   0  0  0  0  0  0  0  0  0  0  0  0
   11.4130   -0.4006   26.9716 C   0  0  0  0  0  0  0  0  0  0  0  0
   10.3874   -1.1836   27.8412 C   0  0  0  0  0  0  0  0  0  0  0  0
    9.0045   -0.5771   27.7368 C   0  0  0  0  0  0  0  0  0  0  0  0
    8.7869   -0.3095   26.2749 C   0  0  0  0  0  0  0  0  0  0  0  0
   10.0612    0.3353   25.7056 C   0  0  0  0  0  0  0  0  0  0  0  0
   13.4211   -1.1351   24.3374 H   0  0  0  0  0  0  0  0  0  0  0  0
   13.4583   -2.3780   25.5950 H   0  0  0  0  0  0  0  0  0  0  0  0
   13.9503   -3.9080   24.0462 H   0  0  0  0  0  0  0  0  0  0  0  0
   12.3071   -3.7891   23.4550 H   0  0  0  0  0  0  0  0  0  0  0  0
   15.0576   -1.2282   22.8423 H   0  0  0  0  0  0  0  0  0  0  0  0
   15.9762   -0.7569   20.6054 H   0  0  0  0  0  0  0  0  0  0  0  0
   12.7383   -4.4980   21.2118 H   0  0  0  0  0  0  0  0  0  0  0  0
   14.2660   -4.9825   18.4838 H   0  0  0  0  0  0  0  0  0  0  0  0
   12.6585   -4.2110   18.3283 H   0  0  0  0  0  0  0  0  0  0  0  0
   14.7037   -3.6262   16.7710 H   0  0  0  0  0  0  0  0  0  0  0  0
   15.2282   -1.2369   17.8448 H   0  0  0  0  0  0  0  0  0  0  0  0
   16.2609   -2.6774   18.0858 H   0  0  0  0  0  0  0  0  0  0  0  0
   11.5958    0.6228   27.3412 H   0  0  0  0  0  0  0  0  0  0  0  0
   12.3751   -0.8915   27.1859 H   0  0  0  0  0  0  0  0  0  0  0  0
   10.7143   -1.1741   28.8872 H   0  0  0  0  0  0  0  0  0  0  0  0
   10.3596   -2.2338   27.5275 H   0  0  0  0  0  0  0  0  0  0  0  0
    8.9669    0.3616   28.3021 H   0  0  0  0  0  0  0  0  0  0  0  0
    8.2397   -1.2437   28.1471 H   0  0  0  0  0  0  0  0  0  0  0  0
    8.5618   -1.2455   25.7568 H   0  0  0  0  0  0  0  0  0  0  0  0
    7.9277    0.3561   26.1430 H   0  0  0  0  0  0  0  0  0  0  0  0
    9.7840    0.5931   24.6735 H   0  0  0  0  0  0  0  0  0  0  0  0
   10.2620    1.3390   26.1191 H   0  0  0  0  0  0  0  0  0  0  0  0
  1  2  2  0
  2  3  1  0
  3  4  1  0
  4  5  1  0
  5  6  2  0
  6  7  1  0
  7  8  2  0
  8  9  1  0
  9 10  2  0
  9 11  1  0
 11 12  1  0
 12 13  1  0
  2 14  1  0
 14 15  1  0
 15 16  1  0
 16 17  1  0
 17 18  1  0
 18 19  1  0
 10  5  1  0
 19 14  1  0
 13  8  1  0
  3 20  1  0
  3 21  1  0
  4 22  1  0
  4 23  1  0
  6 24  1  0
  7 25  1  0
 10 26  1  0
 11 27  1  0
 11 28  1  0
 12 29  1  0
 13 30  1  0
 13 31  1  0
 15 32  1  0
 15 33  1  0
 16 34  1  0
 16 35  1  0
 17 36  1  0
 17 37  1  0
 18 38  1  0
 18 39  1  0
 19 40  1  0
 19 41  1  0
M  END
>  <Energy>  (447) 
90.875067761818286

>  <compound_id>  (447) 
65621

>  <target_id>  (447) 
1

>  <reference_id>  (447) 
44

>  <inspiration_ids>  (447) 
[44, 146]

>  <energy_score>  (447) 
56.4449660523012

>  <distance_score>  (447) 
9.196193081158876

>  <path>  (447) 
/opt/xchem-fragalysis-2/maxwin/BulkDock/SCRATCH/511020/C65621-P44/C65621-P44.minimised.mol

>  <scratch_subdir>  (447) 
/opt/xchem-fragalysis-2/maxwin/BulkDock/SCRATCH/511020/C65621-P44

>  <fragmenstein_runtime>  (447) 
13.92332148551941

>  <fragmenstein_outcome>  (447) 
too moved

>  <fragmenstein_mode>  (447) 
expansion

>  <fragmenstein_error>  (447) 


$$$$
C65621-P146
     RDKit          3D

 41 43  0  0  0  0  0  0  0  0999 V2000
    7.9809   -7.2101   24.2519 O   0  0  0  0  0  0  0  0  0  0  0  0
    7.4813   -6.1116   24.1586 C   0  0  0  0  0  0  0  0  0  0  0  0
    7.5318   -5.3302   22.4457 C   0  0  0  0  0  0  0  0  0  0  0  0
    8.6099   -4.7590   20.7621 C   0  0  0  0  0  0  0  0  0  0  0  0
   10.6727   -5.2806   20.7905 C   0  0  0  0  0  0  0  0  0  0  0  0
   11.7296   -4.3586   21.7411 C   0  0  0  0  0  0  0  0  0  0  0  0
   13.1175   -3.8923   21.6070 C   0  0  0  0  0  0  0  0  0  0  0  0
   13.6818   -4.0177   20.3852 C   0  0  0  0  0  0  0  0  0  0  0  0
   12.9689   -4.7828   19.5276 C   0  0  0  0  0  0  0  0  0  0  0  0
   11.7934   -5.5608   20.0124 C   0  0  0  0  0  0  0  0  0  0  0  0
   13.5121   -4.6157   18.1423 C   0  0  0  0  0  0  0  0  0  0  0  0
   14.5161   -3.5163   18.2410 N   0  0  0  0  0  0  0  0  0  0  0  0
   14.8340   -3.3984   19.6933 C   0  0  0  0  0  0  0  0  0  0  0  0
    6.9287   -5.2363   25.1917 N   0  0  0  0  0  0  0  0  0  0  0  0
    5.4554   -5.5045   25.3753 C   0  0  0  0  0  0  0  0  0  0  0  0
    4.5665   -4.3516   25.9150 C   0  0  0  0  0  0  0  0  0  0  0  0
    5.3661   -3.3685   26.7342 C   0  0  0  0  0  0  0  0  0  0  0  0
    6.4352   -4.1340   27.4793 C   0  0  0  0  0  0  0  0  0  0  0  0
    6.9111   -5.3746   26.6876 C   0  0  0  0  0  0  0  0  0  0  0  0
    6.9858   -6.2024   22.0804 H   0  0  0  0  0  0  0  0  0  0  0  0
    7.0516   -4.4100   22.7851 H   0  0  0  0  0  0  0  0  0  0  0  0
    7.8368   -4.8952   20.0367 H   0  0  0  0  0  0  0  0  0  0  0  0
    8.4787   -3.7062   20.8717 H   0  0  0  0  0  0  0  0  0  0  0  0
   11.4222   -3.9718   22.7244 H   0  0  0  0  0  0  0  0  0  0  0  0
   13.5605   -3.2899   22.3948 H   0  0  0  0  0  0  0  0  0  0  0  0
   12.2606   -6.2367   20.7299 H   0  0  0  0  0  0  0  0  0  0  0  0
   14.0233   -5.5154   17.7930 H   0  0  0  0  0  0  0  0  0  0  0  0
   12.7269   -4.3417   17.4310 H   0  0  0  0  0  0  0  0  0  0  0  0
   14.0280   -2.6645   17.9771 H   0  0  0  0  0  0  0  0  0  0  0  0
   14.9571   -2.3450   19.9630 H   0  0  0  0  0  0  0  0  0  0  0  0
   15.7572   -3.9427   19.9168 H   0  0  0  0  0  0  0  0  0  0  0  0
    5.1162   -5.8571   24.4202 H   0  0  0  0  0  0  0  0  0  0  0  0
    5.2154   -6.4483   25.9054 H   0  0  0  0  0  0  0  0  0  0  0  0
    3.7671   -4.7911   26.5245 H   0  0  0  0  0  0  0  0  0  0  0  0
    4.0676   -3.7936   25.1256 H   0  0  0  0  0  0  0  0  0  0  0  0
    4.7300   -2.7939   27.4151 H   0  0  0  0  0  0  0  0  0  0  0  0
    5.8455   -2.6470   26.0610 H   0  0  0  0  0  0  0  0  0  0  0  0
    7.2814   -3.4665   27.6817 H   0  0  0  0  0  0  0  0  0  0  0  0
    6.0609   -4.4664   28.4547 H   0  0  0  0  0  0  0  0  0  0  0  0
    6.6016   -6.3476   27.1078 H   0  0  0  0  0  0  0  0  0  0  0  0
    7.9893   -5.4363   26.9106 H   0  0  0  0  0  0  0  0  0  0  0  0
  1  2  2  0
  2  3  1  0
  3  4  1  0
  4  5  1  0
  5  6  2  0
  6  7  1  0
  7  8  2  0
  8  9  1  0
  9 10  2  0
  9 11  1  0
 11 12  1  0
 12 13  1  0
  2 14  1  0
 14 15  1  0
 15 16  1  0
 16 17  1  0
 17 18  1  0
 18 19  1  0
 10  5  1  0
 19 14  1  0
 13  8  1  0
  3 20  1  0
  3 21  1  0
  4 22  1  0
  4 23  1  0
  6 24  1  0
  7 25  1  0
 10 26  1  0
 11 27  1  0
 11 28  1  0
 12 29  1  0
 13 30  1  0
 13 31  1  0
 15 32  1  0
 15 33  1  0
 16 34  1  0
 16 35  1  0
 17 36  1  0
 17 37  1  0
 18 38  1  0
 18 39  1  0
 19 40  1  0
 19 41  1  0
M  END
>  <Energy>  (448) 
505.86959568141742

>  <compound_id>  (448) 
65621

>  <target_id>  (448) 
1

>  <reference_id>  (448) 
146

>  <inspiration_ids>  (448) 
[44, 146]

>  <energy_score>  (448) 
471.43949397189954

>  <distance_score>  (448) 
8.333682930917645

>  <path>  (448) 
/opt/xchem-fragalysis-2/maxwin/BulkDock/SCRATCH/511020/C65621-P146/C65621-P146.minimised.mol

>  <scratch_subdir>  (448) 
/opt/xchem-fragalysis-2/maxwin/BulkDock/SCRATCH/511020/C65621-P146

>  <fragmenstein_runtime>  (448) 
9.905171871185303

>  <fragmenstein_outcome>  (448) 
too moved

>  <fragmenstein_mode>  (448) 
expansion

>  <fragmenstein_error>  (448) 


$$$$
C65622-P44
     RDKit          3D

 46 48  0  0  0  0  0  0  0  0999 V2000
   -1.2247    4.4443   22.1194 C   0  0  0  0  0  0  0  0  0  0  0  0
    0.1080    4.6866   21.4302 C   0  0  0  0  0  0  0  0  0  0  0  0
    0.4998    6.1668   21.4094 C   0  0  0  0  0  0  0  0  0  0  0  0
   -0.2637    7.0229   21.7659 O   0  0  0  0  0  0  0  0  0  0  0  0
    1.8061    6.2667   20.8338 N   0  0  0  0  0  0  0  0  0  0  0  0
    2.5898    7.4644   20.3903 C   0  0  0  0  0  0  0  0  0  0  0  0
    3.8150    7.1411   19.5275 C   0  0  0  0  0  0  0  0  0  0  0  0
    4.4891    5.8790   20.0400 C   0  0  0  0  0  0  0  0  0  0  0  0
    5.8978    5.7049   19.6257 N   0  0  0  0  0  0  0  0  0  0  0  0
    6.0956    5.6038   18.1630 C   0  0  0  0  0  0  0  0  0  0  0  0
    7.3504    4.8609   17.6603 C   0  0  0  0  0  0  0  0  0  0  0  0
    8.6610    5.2348   18.0112 C   0  0  0  0  0  0  0  0  0  0  0  0
    9.7811    4.7159   17.3253 C   0  0  0  0  0  0  0  0  0  0  0  0
    9.5944    3.7817   16.3170 C   0  0  0  0  0  0  0  0  0  0  0  0
    8.3224    3.3332   16.0169 C   0  0  0  0  0  0  0  0  0  0  0  0
    7.2096    3.8841   16.6493 C   0  0  0  0  0  0  0  0  0  0  0  0
    8.3955    2.3272   14.9142 C   0  0  0  0  0  0  0  0  0  0  0  0
    9.8446    2.0552   14.7042 N   0  0  0  0  0  0  0  0  0  0  0  0
   10.5550    3.1930   15.3381 C   0  0  0  0  0  0  0  0  0  0  0  0
    4.3216    5.9068   21.5558 C   0  0  0  0  0  0  0  0  0  0  0  0
    2.8662    6.2531   21.9324 C   0  0  0  0  0  0  0  0  0  0  0  0
   -1.4619    3.3761   22.1290 H   0  0  0  0  0  0  0  0  0  0  0  0
   -2.0358    4.9688   21.6036 H   0  0  0  0  0  0  0  0  0  0  0  0
   -1.2004    4.7982   23.1553 H   0  0  0  0  0  0  0  0  0  0  0  0
    0.0494    4.3346   20.3938 H   0  0  0  0  0  0  0  0  0  0  0  0
    0.8819    4.1057   21.9419 H   0  0  0  0  0  0  0  0  0  0  0  0
    2.7392    8.2770   21.1231 H   0  0  0  0  0  0  0  0  0  0  0  0
    1.8846    7.9628   19.7058 H   0  0  0  0  0  0  0  0  0  0  0  0
    3.5149    6.9990   18.4818 H   0  0  0  0  0  0  0  0  0  0  0  0
    4.4954    8.0014   19.5457 H   0  0  0  0  0  0  0  0  0  0  0  0
    3.9161    5.0253   19.6607 H   0  0  0  0  0  0  0  0  0  0  0  0
    6.4778    6.4570   19.9868 H   0  0  0  0  0  0  0  0  0  0  0  0
    6.1190    6.6135   17.7337 H   0  0  0  0  0  0  0  0  0  0  0  0
    5.2218    5.1092   17.7200 H   0  0  0  0  0  0  0  0  0  0  0  0
    8.8187    5.9929   18.7740 H   0  0  0  0  0  0  0  0  0  0  0  0
   10.7766    5.0714   17.5727 H   0  0  0  0  0  0  0  0  0  0  0  0
    6.2174    3.5920   16.3257 H   0  0  0  0  0  0  0  0  0  0  0  0
    7.9662    2.7389   13.9951 H   0  0  0  0  0  0  0  0  0  0  0  0
    7.8790    1.4004   15.1797 H   0  0  0  0  0  0  0  0  0  0  0  0
   10.0558    1.2289   15.2607 H   0  0  0  0  0  0  0  0  0  0  0  0
   11.4870    2.8534   15.7827 H   0  0  0  0  0  0  0  0  0  0  0  0
   10.7931    3.9367   14.5690 H   0  0  0  0  0  0  0  0  0  0  0  0
    4.9874    6.6545   22.0067 H   0  0  0  0  0  0  0  0  0  0  0  0
    4.5963    4.9475   22.0019 H   0  0  0  0  0  0  0  0  0  0  0  0
    2.7779    7.0929   22.6451 H   0  0  0  0  0  0  0  0  0  0  0  0
    2.5577    5.4212   22.5853 H   0  0  0  0  0  0  0  0  0  0  0  0
  1  2  1  0
  2  3  1  0
  3  4  2  0
  3  5  1  0
  5  6  1  0
  6  7  1  0
  7  8  1  0
  8  9  1  0
  9 10  1  0
 10 11  1  0
 11 12  2  0
 12 13  1  0
 13 14  2  0
 14 15  1  0
 15 16  2  0
 15 17  1  0
 17 18  1  0
 18 19  1  0
  8 20  1  0
 20 21  1  0
 21  5  1  0
 16 11  1  0
 19 14  1  0
  1 22  1  0
  1 23  1  0
  1 24  1  0
  2 25  1  0
  2 26  1  0
  6 27  1  0
  6 28  1  0
  7 29  1  0
  7 30  1  0
  8 31  1  0
  9 32  1  0
 10 33  1  0
 10 34  1  0
 12 35  1  0
 13 36  1  0
 16 37  1  0
 17 38  1  0
 17 39  1  0
 18 40  1  0
 19 41  1  0
 19 42  1  0
 20 43  1  0
 20 44  1  0
 21 45  1  0
 21 46  1  0
M  END
>  <Energy>  (449) 
87.201043505315909

>  <compound_id>  (449) 
65622

>  <target_id>  (449) 
1

>  <reference_id>  (449) 
44

>  <inspiration_ids>  (449) 
[44, 146]

>  <energy_score>  (449) 
36.74457435782239

>  <distance_score>  (449) 
8.83850065620645

>  <path>  (449) 
/opt/xchem-fragalysis-2/maxwin/BulkDock/SCRATCH/511020/C65622-P44/C65622-P44.minimised.mol

>  <scratch_subdir>  (449) 
/opt/xchem-fragalysis-2/maxwin/BulkDock/SCRATCH/511020/C65622-P44

>  <fragmenstein_runtime>  (449) 
24.424877405166626

>  <fragmenstein_outcome>  (449) 
too moved

>  <fragmenstein_mode>  (449) 
expansion

>  <fragmenstein_error>  (449) 


$$$$
C65622-P146
     RDKit          3D

 46 48  0  0  0  0  0  0  0  0999 V2000
    3.7880    7.4918   26.4107 C   0  0  0  0  0  0  0  0  0  0  0  0
    3.0929    7.7996   25.0965 C   0  0  0  0  0  0  0  0  0  0  0  0
    1.9336    6.8415   24.8432 C   0  0  0  0  0  0  0  0  0  0  0  0
    0.8008    7.2094   25.0035 O   0  0  0  0  0  0  0  0  0  0  0  0
    2.4535    5.5529   24.5116 N   0  0  0  0  0  0  0  0  0  0  0  0
    1.7662    4.2282   24.3683 C   0  0  0  0  0  0  0  0  0  0  0  0
    2.6967    3.0280   24.1881 C   0  0  0  0  0  0  0  0  0  0  0  0
    3.2018    2.9609   22.7371 C   0  0  0  0  0  0  0  0  0  0  0  0
    4.1359    1.7077   22.5289 N   0  0  0  0  0  0  0  0  0  0  0  0
    5.5368    0.8895   21.5093 C   0  0  0  0  0  0  0  0  0  0  0  0
    7.3925    1.3288   20.6940 C   0  0  0  0  0  0  0  0  0  0  0  0
    7.9822    2.6915   20.6811 C   0  0  0  0  0  0  0  0  0  0  0  0
    8.9073    3.1715   19.7311 C   0  0  0  0  0  0  0  0  0  0  0  0
    9.1584    2.4090   18.6186 C   0  0  0  0  0  0  0  0  0  0  0  0
    8.6293    1.1306   18.5051 C   0  0  0  0  0  0  0  0  0  0  0  0
    7.8371    0.5573   19.5425 C   0  0  0  0  0  0  0  0  0  0  0  0
    8.8666    0.6864   17.0778 C   0  0  0  0  0  0  0  0  0  0  0  0
    9.2923    1.8899   16.3284 N   0  0  0  0  0  0  0  0  0  0  0  0
    9.8322    2.8136   17.3486 C   0  0  0  0  0  0  0  0  0  0  0  0
    3.6537    4.4355   22.5126 C   0  0  0  0  0  0  0  0  0  0  0  0
    2.5708    5.4095   23.0067 C   0  0  0  0  0  0  0  0  0  0  0  0
    4.5696    8.2313   26.6100 H   0  0  0  0  0  0  0  0  0  0  0  0
    4.2549    6.5017   26.3926 H   0  0  0  0  0  0  0  0  0  0  0  0
    3.0769    7.5095   27.2432 H   0  0  0  0  0  0  0  0  0  0  0  0
    3.8094    7.7518   24.2701 H   0  0  0  0  0  0  0  0  0  0  0  0
    2.6951    8.8208   25.1130 H   0  0  0  0  0  0  0  0  0  0  0  0
    1.3452    4.1004   25.3788 H   0  0  0  0  0  0  0  0  0  0  0  0
    0.8405    4.2106   23.7676 H   0  0  0  0  0  0  0  0  0  0  0  0
    3.5222    3.1241   24.9029 H   0  0  0  0  0  0  0  0  0  0  0  0
    2.1759    2.1266   24.4568 H   0  0  0  0  0  0  0  0  0  0  0  0
    2.3477    2.7983   22.0698 H   0  0  0  0  0  0  0  0  0  0  0  0
    4.1112    1.0948   23.3570 H   0  0  0  0  0  0  0  0  0  0  0  0
    5.1925   -0.0920   21.4364 H   0  0  0  0  0  0  0  0  0  0  0  0
    5.7424    0.9133   22.4602 H   0  0  0  0  0  0  0  0  0  0  0  0
    7.6307    3.4846   21.3484 H   0  0  0  0  0  0  0  0  0  0  0  0
    9.2648    4.1958   19.7942 H   0  0  0  0  0  0  0  0  0  0  0  0
    7.3413   -0.3722   19.3302 H   0  0  0  0  0  0  0  0  0  0  0  0
    7.9885    0.2436   16.6101 H   0  0  0  0  0  0  0  0  0  0  0  0
    9.6693   -0.0350   16.9748 H   0  0  0  0  0  0  0  0  0  0  0  0
    8.4298    2.3245   15.9933 H   0  0  0  0  0  0  0  0  0  0  0  0
   10.9146    2.7073   17.4341 H   0  0  0  0  0  0  0  0  0  0  0  0
    9.5959    3.8474   17.0769 H   0  0  0  0  0  0  0  0  0  0  0  0
    3.8045    4.6702   21.4534 H   0  0  0  0  0  0  0  0  0  0  0  0
    4.5958    4.6540   23.0285 H   0  0  0  0  0  0  0  0  0  0  0  0
    1.6168    5.3621   22.4516 H   0  0  0  0  0  0  0  0  0  0  0  0
    2.9413    6.3931   22.6755 H   0  0  0  0  0  0  0  0  0  0  0  0
  1  2  1  0
  2  3  1  0
  3  4  2  0
  3  5  1  0
  5  6  1  0
  6  7  1  0
  7  8  1  0
  8  9  1  0
  9 10  1  0
 10 11  1  0
 11 12  2  0
 12 13  1  0
 13 14  2  0
 14 15  1  0
 15 16  2  0
 15 17  1  0
 17 18  1  0
 18 19  1  0
  8 20  1  0
 20 21  1  0
 21  5  1  0
 16 11  1  0
 19 14  1  0
  1 22  1  0
  1 23  1  0
  1 24  1  0
  2 25  1  0
  2 26  1  0
  6 27  1  0
  6 28  1  0
  7 29  1  0
  7 30  1  0
  8 31  1  0
  9 32  1  0
 10 33  1  0
 10 34  1  0
 12 35  1  0
 13 36  1  0
 16 37  1  0
 17 38  1  0
 17 39  1  0
 18 40  1  0
 19 41  1  0
 19 42  1  0
 20 43  1  0
 20 44  1  0
 21 45  1  0
 21 46  1  0
M  END
>  <Energy>  (450) 
336.28295363059993

>  <compound_id>  (450) 
65622

>  <target_id>  (450) 
1

>  <reference_id>  (450) 
146

>  <inspiration_ids>  (450) 
[44, 146]

>  <energy_score>  (450) 
285.82648448310664

>  <distance_score>  (450) 
7.4837493719145485

>  <path>  (450) 
/opt/xchem-fragalysis-2/maxwin/BulkDock/SCRATCH/511020/C65622-P146/C65622-P146.minimised.mol

>  <scratch_subdir>  (450) 
/opt/xchem-fragalysis-2/maxwin/BulkDock/SCRATCH/511020/C65622-P146

>  <fragmenstein_runtime>  (450) 
29.434603691101074

>  <fragmenstein_outcome>  (450) 
too moved

>  <fragmenstein_mode>  (450) 
expansion

>  <fragmenstein_error>  (450) 


$$$$
C65623-P44
     RDKit          3D

 49 51  0  0  0  0  0  0  0  0999 V2000
   -0.7526    3.4842   27.3705 C   0  0  0  0  0  0  0  0  0  0  0  0
    0.3292    3.1538   26.3547 C   0  0  0  0  0  0  0  0  0  0  0  0
    1.4516    4.1935   26.3275 C   0  0  0  0  0  0  0  0  0  0  0  0
    1.4470    5.1384   27.0692 O   0  0  0  0  0  0  0  0  0  0  0  0
    2.3528    3.8450   25.2690 N   0  0  0  0  0  0  0  0  0  0  0  0
    3.5107    4.6034   24.6762 C   0  0  0  0  0  0  0  0  0  0  0  0
    4.4054    3.9674   23.5944 C   0  0  0  0  0  0  0  0  0  0  0  0
    4.0207    2.5184   23.3828 C   0  0  0  0  0  0  0  0  0  0  0  0
    4.7899    1.6059   22.3774 N   0  0  0  0  0  0  0  0  0  0  0  0
    6.2187    2.2306   21.2018 C   0  0  0  0  0  0  0  0  0  0  0  0
    7.3967    2.2200   19.6323 C   0  0  0  0  0  0  0  0  0  0  0  0
    7.7846    0.9863   19.0126 C   0  0  0  0  0  0  0  0  0  0  0  0
    8.4958    0.9638   17.7977 C   0  0  0  0  0  0  0  0  0  0  0  0
    8.9236    2.1257   17.1736 C   0  0  0  0  0  0  0  0  0  0  0  0
    8.6447    3.3471   17.7984 C   0  0  0  0  0  0  0  0  0  0  0  0
    7.8543    3.4023   18.9891 C   0  0  0  0  0  0  0  0  0  0  0  0
    9.0873    4.6128   17.1012 C   0  0  0  0  0  0  0  0  0  0  0  0
   10.0776    4.3769   15.9449 C   0  0  0  0  0  0  0  0  0  0  0  0
    9.6550    3.2783   15.0800 N   0  0  0  0  0  0  0  0  0  0  0  0
    9.6274    2.0286   15.8379 C   0  0  0  0  0  0  0  0  0  0  0  0
    3.9879    1.9272   24.8005 C   0  0  0  0  0  0  0  0  0  0  0  0
    3.4784    2.9770   25.8054 C   0  0  0  0  0  0  0  0  0  0  0  0
   -1.2137    4.4535   27.1535 H   0  0  0  0  0  0  0  0  0  0  0  0
   -1.5375    2.7216   27.3537 H   0  0  0  0  0  0  0  0  0  0  0  0
   -0.3405    3.5279   28.3841 H   0  0  0  0  0  0  0  0  0  0  0  0
    0.7535    2.1740   26.5958 H   0  0  0  0  0  0  0  0  0  0  0  0
   -0.1189    3.0999   25.3559 H   0  0  0  0  0  0  0  0  0  0  0  0
    4.0683    5.1944   25.4240 H   0  0  0  0  0  0  0  0  0  0  0  0
    2.9788    5.4141   24.1524 H   0  0  0  0  0  0  0  0  0  0  0  0
    4.3519    4.5501   22.6694 H   0  0  0  0  0  0  0  0  0  0  0  0
    5.4286    4.0324   23.9754 H   0  0  0  0  0  0  0  0  0  0  0  0
    2.9907    2.5340   23.0033 H   0  0  0  0  0  0  0  0  0  0  0  0
    4.1376    0.9486   21.9112 H   0  0  0  0  0  0  0  0  0  0  0  0
    5.5651    1.3687   21.0132 H   0  0  0  0  0  0  0  0  0  0  0  0
    7.0369    1.6324   21.0833 H   0  0  0  0  0  0  0  0  0  0  0  0
    7.3782    0.0483   19.3718 H   0  0  0  0  0  0  0  0  0  0  0  0
    8.5967    0.0492   17.2334 H   0  0  0  0  0  0  0  0  0  0  0  0
    7.5417    4.3823   19.3331 H   0  0  0  0  0  0  0  0  0  0  0  0
    9.5479    5.2891   17.8307 H   0  0  0  0  0  0  0  0  0  0  0  0
    8.1906    5.1064   16.7052 H   0  0  0  0  0  0  0  0  0  0  0  0
   10.1411    5.2951   15.3497 H   0  0  0  0  0  0  0  0  0  0  0  0
   11.0872    4.1921   16.3255 H   0  0  0  0  0  0  0  0  0  0  0  0
   10.2917    3.1801   14.2941 H   0  0  0  0  0  0  0  0  0  0  0  0
    9.1197    1.2812   15.2176 H   0  0  0  0  0  0  0  0  0  0  0  0
   10.6500    1.6726   15.9946 H   0  0  0  0  0  0  0  0  0  0  0  0
    4.9812    1.5993   25.1291 H   0  0  0  0  0  0  0  0  0  0  0  0
    3.3539    1.0410   24.8441 H   0  0  0  0  0  0  0  0  0  0  0  0
    4.2778    3.4924   26.3687 H   0  0  0  0  0  0  0  0  0  0  0  0
    3.0293    2.3805   26.6155 H   0  0  0  0  0  0  0  0  0  0  0  0
  1  2  1  0
  2  3  1  0
  3  4  2  0
  3  5  1  0
  5  6  1  0
  6  7  1  0
  7  8  1  0
  8  9  1  0
  9 10  1  0
 10 11  1  0
 11 12  2  0
 12 13  1  0
 13 14  2  0
 14 15  1  0
 15 16  2  0
 15 17  1  0
 17 18  1  0
 18 19  1  0
 19 20  1  0
  8 21  1  0
 21 22  1  0
 22  5  1  0
 16 11  1  0
 20 14  1  0
  1 23  1  0
  1 24  1  0
  1 25  1  0
  2 26  1  0
  2 27  1  0
  6 28  1  0
  6 29  1  0
  7 30  1  0
  7 31  1  0
  8 32  1  0
  9 33  1  0
 10 34  1  0
 10 35  1  0
 12 36  1  0
 13 37  1  0
 16 38  1  0
 17 39  1  0
 17 40  1  0
 18 41  1  0
 18 42  1  0
 19 43  1  0
 20 44  1  0
 20 45  1  0
 21 46  1  0
 21 47  1  0
 22 48  1  0
 22 49  1  0
M  END
>  <Energy>  (451) 
378.95048066932418

>  <compound_id>  (451) 
65623

>  <target_id>  (451) 
1

>  <reference_id>  (451) 
44

>  <inspiration_ids>  (451) 
[44, 146]

>  <energy_score>  (451) 
326.8022814883669

>  <distance_score>  (451) 
7.210938933362688

>  <path>  (451) 
/opt/xchem-fragalysis-2/maxwin/BulkDock/SCRATCH/511020/C65623-P44/C65623-P44.minimised.mol

>  <scratch_subdir>  (451) 
/opt/xchem-fragalysis-2/maxwin/BulkDock/SCRATCH/511020/C65623-P44

>  <fragmenstein_runtime>  (451) 
19.64639186859131

>  <fragmenstein_outcome>  (451) 
too moved

>  <fragmenstein_mode>  (451) 
expansion

>  <fragmenstein_error>  (451) 


$$$$
C65623-P146
     RDKit          3D

 49 51  0  0  0  0  0  0  0  0999 V2000
    4.2864    5.0781   28.0298 C   0  0  0  0  0  0  0  0  0  0  0  0
    3.1336    4.7192   27.1069 C   0  0  0  0  0  0  0  0  0  0  0  0
    3.5883    4.4909   25.6643 C   0  0  0  0  0  0  0  0  0  0  0  0
    4.7456    4.5866   25.3498 O   0  0  0  0  0  0  0  0  0  0  0  0
    2.4217    4.2496   24.8641 N   0  0  0  0  0  0  0  0  0  0  0  0
    2.2603    4.1527   23.4004 C   0  0  0  0  0  0  0  0  0  0  0  0
    3.4223    3.6346   22.5646 C   0  0  0  0  0  0  0  0  0  0  0  0
    3.7769    1.8558   22.5978 C   0  0  0  0  0  0  0  0  0  0  0  0
    5.2771    0.8543   21.6641 N   0  0  0  0  0  0  0  0  0  0  0  0
    6.7724    0.3985   20.3061 C   0  0  0  0  0  0  0  0  0  0  0  0
    8.0663    1.3241   19.8010 C   0  0  0  0  0  0  0  0  0  0  0  0
    8.4997    0.9531   18.4877 C   0  0  0  0  0  0  0  0  0  0  0  0
    9.3294    1.7008   17.6609 C   0  0  0  0  0  0  0  0  0  0  0  0
    9.8911    2.8403   18.1773 C   0  0  0  0  0  0  0  0  0  0  0  0
    9.6266    3.1733   19.5220 C   0  0  0  0  0  0  0  0  0  0  0  0
    8.7016    2.4402   20.3267 C   0  0  0  0  0  0  0  0  0  0  0  0
   10.3252    4.4134   20.0158 C   0  0  0  0  0  0  0  0  0  0  0  0
   11.7325    4.5031   19.3966 C   0  0  0  0  0  0  0  0  0  0  0  0
   11.8208    4.4013   17.9358 N   0  0  0  0  0  0  0  0  0  0  0  0
   10.6581    3.7895   17.2987 C   0  0  0  0  0  0  0  0  0  0  0  0
    3.2725    1.7920   24.3198 C   0  0  0  0  0  0  0  0  0  0  0  0
    2.1489    2.7737   24.7689 C   0  0  0  0  0  0  0  0  0  0  0  0
    4.7858    5.9942   27.6976 H   0  0  0  0  0  0  0  0  0  0  0  0
    5.0335    4.2779   28.0543 H   0  0  0  0  0  0  0  0  0  0  0  0
    3.9224    5.2378   29.0494 H   0  0  0  0  0  0  0  0  0  0  0  0
    2.6505    3.8123   27.4834 H   0  0  0  0  0  0  0  0  0  0  0  0
    2.3975    5.5312   27.1152 H   0  0  0  0  0  0  0  0  0  0  0  0
    1.2661    3.8456   23.0310 H   0  0  0  0  0  0  0  0  0  0  0  0
    2.2321    5.2250   23.1416 H   0  0  0  0  0  0  0  0  0  0  0  0
    4.3279    4.2183   22.7745 H   0  0  0  0  0  0  0  0  0  0  0  0
    3.0773    3.9194   21.5555 H   0  0  0  0  0  0  0  0  0  0  0  0
    2.9491    1.6675   21.8812 H   0  0  0  0  0  0  0  0  0  0  0  0
    4.7815   -0.0287   21.7329 H   0  0  0  0  0  0  0  0  0  0  0  0
    7.1741   -0.6620   20.1357 H   0  0  0  0  0  0  0  0  0  0  0  0
    6.3606    0.3296   19.3027 H   0  0  0  0  0  0  0  0  0  0  0  0
    8.0286    0.1183   17.9996 H   0  0  0  0  0  0  0  0  0  0  0  0
    9.4763    1.4135   16.6243 H   0  0  0  0  0  0  0  0  0  0  0  0
    8.4838    2.8251   21.3122 H   0  0  0  0  0  0  0  0  0  0  0  0
   10.4163    4.3879   21.1077 H   0  0  0  0  0  0  0  0  0  0  0  0
    9.7295    5.2936   19.7463 H   0  0  0  0  0  0  0  0  0  0  0  0
   12.1991    5.4457   19.7038 H   0  0  0  0  0  0  0  0  0  0  0  0
   12.3400    3.7085   19.8413 H   0  0  0  0  0  0  0  0  0  0  0  0
   12.6513    3.8774   17.6609 H   0  0  0  0  0  0  0  0  0  0  0  0
    9.9728    4.5854   16.9814 H   0  0  0  0  0  0  0  0  0  0  0  0
   10.9877    3.2859   16.3822 H   0  0  0  0  0  0  0  0  0  0  0  0
    4.0204    2.0803   25.0489 H   0  0  0  0  0  0  0  0  0  0  0  0
    3.0988    0.7762   24.6808 H   0  0  0  0  0  0  0  0  0  0  0  0
    1.1399    2.5673   24.3893 H   0  0  0  0  0  0  0  0  0  0  0  0
    1.9996    2.5004   25.8273 H   0  0  0  0  0  0  0  0  0  0  0  0
  1  2  1  0
  2  3  1  0
  3  4  2  0
  3  5  1  0
  5  6  1  0
  6  7  1  0
  7  8  1  0
  8  9  1  0
  9 10  1  0
 10 11  1  0
 11 12  2  0
 12 13  1  0
 13 14  2  0
 14 15  1  0
 15 16  2  0
 15 17  1  0
 17 18  1  0
 18 19  1  0
 19 20  1  0
  8 21  1  0
 21 22  1  0
 22  5  1  0
 16 11  1  0
 20 14  1  0
  1 23  1  0
  1 24  1  0
  1 25  1  0
  2 26  1  0
  2 27  1  0
  6 28  1  0
  6 29  1  0
  7 30  1  0
  7 31  1  0
  8 32  1  0
  9 33  1  0
 10 34  1  0
 10 35  1  0
 12 36  1  0
 13 37  1  0
 16 38  1  0
 17 39  1  0
 17 40  1  0
 18 41  1  0
 18 42  1  0
 19 43  1  0
 20 44  1  0
 20 45  1  0
 21 46  1  0
 21 47  1  0
 22 48  1  0
 22 49  1  0
M  END
>  <Energy>  (452) 
486.83751900356788

>  <compound_id>  (452) 
65623

>  <target_id>  (452) 
1

>  <reference_id>  (452) 
146

>  <inspiration_ids>  (452) 
[44, 146]

>  <energy_score>  (452) 
434.68931982261023

>  <distance_score>  (452) 
7.5780219404314995

>  <path>  (452) 
/opt/xchem-fragalysis-2/maxwin/BulkDock/SCRATCH/511020/C65623-P146/C65623-P146.minimised.mol

>  <scratch_subdir>  (452) 
/opt/xchem-fragalysis-2/maxwin/BulkDock/SCRATCH/511020/C65623-P146

>  <fragmenstein_runtime>  (452) 
20.062495946884155

>  <fragmenstein_outcome>  (452) 
too moved

>  <fragmenstein_mode>  (452) 
expansion

>  <fragmenstein_error>  (452) 


$$$$
C65624-P44
     RDKit          3D

 48 50  0  0  0  0  0  0  0  0999 V2000
    9.6481   -3.9399   26.9972 C   0  0  0  0  0  0  0  0  0  0  0  0
   10.5304   -2.9218   26.2959 C   0  0  0  0  0  0  0  0  0  0  0  0
   10.0688   -1.4896   26.5663 C   0  0  0  0  0  0  0  0  0  0  0  0
    8.9032   -1.2169   26.6686 O   0  0  0  0  0  0  0  0  0  0  0  0
   11.2329   -0.6693   26.7126 N   0  0  0  0  0  0  0  0  0  0  0  0
   11.3750    0.7565   27.1489 C   0  0  0  0  0  0  0  0  0  0  0  0
   10.2109    1.7161   26.8774 C   0  0  0  0  0  0  0  0  0  0  0  0
   10.4038    2.2168   25.4764 C   0  0  0  0  0  0  0  0  0  0  0  0
   10.7342    1.0161   24.6174 C   0  0  0  0  0  0  0  0  0  0  0  0
   11.6366   -0.0509   25.3204 C   0  0  0  0  0  0  0  0  0  0  0  0
   13.2314   -0.0657   24.9764 C   0  0  0  0  0  0  0  0  0  0  0  0
   13.9763    0.3286   25.8308 O   0  0  0  0  0  0  0  0  0  0  0  0
   13.5093   -0.6614   23.6796 N   0  0  0  0  0  0  0  0  0  0  0  0
   14.7617   -1.0496   23.0626 C   0  0  0  0  0  0  0  0  0  0  0  0
   14.7894   -1.3324   21.5702 C   0  0  0  0  0  0  0  0  0  0  0  0
   15.4881   -0.4446   20.7161 C   0  0  0  0  0  0  0  0  0  0  0  0
   15.6664   -0.7095   19.3503 C   0  0  0  0  0  0  0  0  0  0  0  0
   15.1048   -1.8574   18.8268 C   0  0  0  0  0  0  0  0  0  0  0  0
   14.4106   -2.7473   19.6444 C   0  0  0  0  0  0  0  0  0  0  0  0
   14.2604   -2.5136   21.0137 C   0  0  0  0  0  0  0  0  0  0  0  0
   13.9087   -3.8739   18.7928 C   0  0  0  0  0  0  0  0  0  0  0  0
   14.0075   -3.3651   17.4051 N   0  0  0  0  0  0  0  0  0  0  0  0
   15.0715   -2.3458   17.4137 C   0  0  0  0  0  0  0  0  0  0  0  0
    9.9900   -4.9559   26.7773 H   0  0  0  0  0  0  0  0  0  0  0  0
    9.6768   -3.7948   28.0823 H   0  0  0  0  0  0  0  0  0  0  0  0
    8.6044   -3.8558   26.6806 H   0  0  0  0  0  0  0  0  0  0  0  0
   10.5073   -3.0888   25.2145 H   0  0  0  0  0  0  0  0  0  0  0  0
   11.5648   -3.0575   26.6318 H   0  0  0  0  0  0  0  0  0  0  0  0
   12.3614    1.2210   27.0415 H   0  0  0  0  0  0  0  0  0  0  0  0
   11.3276    0.6216   28.2416 H   0  0  0  0  0  0  0  0  0  0  0  0
   10.2428    2.5590   27.5770 H   0  0  0  0  0  0  0  0  0  0  0  0
    9.2392    1.2296   26.9992 H   0  0  0  0  0  0  0  0  0  0  0  0
   11.2413    2.9247   25.4462 H   0  0  0  0  0  0  0  0  0  0  0  0
    9.5183    2.7499   25.1259 H   0  0  0  0  0  0  0  0  0  0  0  0
   11.1931    1.3476   23.6794 H   0  0  0  0  0  0  0  0  0  0  0  0
    9.7842    0.5468   24.3604 H   0  0  0  0  0  0  0  0  0  0  0  0
   11.3584   -0.9245   24.7143 H   0  0  0  0  0  0  0  0  0  0  0  0
   12.6286   -0.9536   23.2507 H   0  0  0  0  0  0  0  0  0  0  0  0
   15.4939   -0.2749   23.3199 H   0  0  0  0  0  0  0  0  0  0  0  0
   15.0999   -1.9506   23.5895 H   0  0  0  0  0  0  0  0  0  0  0  0
   15.9252    0.4646   21.1277 H   0  0  0  0  0  0  0  0  0  0  0  0
   16.2051   -0.0107   18.7186 H   0  0  0  0  0  0  0  0  0  0  0  0
   13.7322   -3.2312   21.6354 H   0  0  0  0  0  0  0  0  0  0  0  0
   14.5529   -4.7497   18.9269 H   0  0  0  0  0  0  0  0  0  0  0  0
   12.8782   -4.1398   19.0243 H   0  0  0  0  0  0  0  0  0  0  0  0
   14.2356   -4.1403   16.7856 H   0  0  0  0  0  0  0  0  0  0  0  0
   16.0367   -2.7904   17.1488 H   0  0  0  0  0  0  0  0  0  0  0  0
   14.8257   -1.5425   16.7135 H   0  0  0  0  0  0  0  0  0  0  0  0
  1  2  1  0
  2  3  1  0
  3  4  2  0
  3  5  1  0
  5  6  1  0
  6  7  1  0
  7  8  1  0
  8  9  1  0
  9 10  1  0
 10 11  1  0
 11 12  2  0
 11 13  1  0
 13 14  1  0
 14 15  1  0
 15 16  2  0
 16 17  1  0
 17 18  2  0
 18 19  1  0
 19 20  2  0
 19 21  1  0
 21 22  1  0
 22 23  1  0
 10  5  1  0
 20 15  1  0
 23 18  1  0
  1 24  1  0
  1 25  1  0
  1 26  1  0
  2 27  1  0
  2 28  1  0
  6 29  1  0
  6 30  1  0
  7 31  1  0
  7 32  1  0
  8 33  1  0
  8 34  1  0
  9 35  1  0
  9 36  1  0
 10 37  1  0
 13 38  1  0
 14 39  1  0
 14 40  1  0
 16 41  1  0
 17 42  1  0
 20 43  1  0
 21 44  1  0
 21 45  1  0
 22 46  1  0
 23 47  1  0
 23 48  1  0
M  END
>  <Energy>  (453) 
115.87686545768477

>  <compound_id>  (453) 
65624

>  <target_id>  (453) 
1

>  <reference_id>  (453) 
44

>  <inspiration_ids>  (453) 
[44, 146]

>  <energy_score>  (453) 
60.127414376498024

>  <distance_score>  (453) 
9.053589074931725

>  <path>  (453) 
/opt/xchem-fragalysis-2/maxwin/BulkDock/SCRATCH/511020/C65624-P44/C65624-P44.minimised.mol

>  <scratch_subdir>  (453) 
/opt/xchem-fragalysis-2/maxwin/BulkDock/SCRATCH/511020/C65624-P44

>  <fragmenstein_runtime>  (453) 
32.89882731437683

>  <fragmenstein_outcome>  (453) 
too moved

>  <fragmenstein_mode>  (453) 
expansion

>  <fragmenstein_error>  (453) 


$$$$
C65624-P146
     RDKit          3D

 48 50  0  0  0  0  0  0  0  0999 V2000
    9.8395   -8.8577   26.1928 C   0  0  0  0  0  0  0  0  0  0  0  0
    8.6212   -7.9700   26.3838 C   0  0  0  0  0  0  0  0  0  0  0  0
    7.4793   -8.3236   25.4266 C   0  0  0  0  0  0  0  0  0  0  0  0
    7.5386   -9.2912   24.7153 O   0  0  0  0  0  0  0  0  0  0  0  0
    6.4147   -7.3900   25.6420 N   0  0  0  0  0  0  0  0  0  0  0  0
    5.0241   -7.3818   25.1465 C   0  0  0  0  0  0  0  0  0  0  0  0
    4.1372   -6.4175   25.9538 C   0  0  0  0  0  0  0  0  0  0  0  0
    4.6351   -4.9821   25.9359 C   0  0  0  0  0  0  0  0  0  0  0  0
    6.0211   -4.8780   25.3157 C   0  0  0  0  0  0  0  0  0  0  0  0
    6.5349   -6.1913   24.6440 C   0  0  0  0  0  0  0  0  0  0  0  0
    6.9019   -6.4380   22.9910 C   0  0  0  0  0  0  0  0  0  0  0  0
    6.7014   -7.5070   22.4530 O   0  0  0  0  0  0  0  0  0  0  0  0
    7.5863   -5.1494   22.4532 N   0  0  0  0  0  0  0  0  0  0  0  0
    8.5180   -4.7843   20.7532 C   0  0  0  0  0  0  0  0  0  0  0  0
   10.5740   -5.3236   20.6806 C   0  0  0  0  0  0  0  0  0  0  0  0
   11.5830   -6.2479   20.9999 C   0  0  0  0  0  0  0  0  0  0  0  0
   12.8886   -5.9002   21.8380 C   0  0  0  0  0  0  0  0  0  0  0  0
   13.7578   -4.9549   21.4678 C   0  0  0  0  0  0  0  0  0  0  0  0
   13.1120   -3.9529   20.9006 C   0  0  0  0  0  0  0  0  0  0  0  0
   11.6877   -4.0972   21.0432 C   0  0  0  0  0  0  0  0  0  0  0  0
   14.0869   -2.8100   20.8412 C   0  0  0  0  0  0  0  0  0  0  0  0
   15.4235   -3.3948   21.0802 N   0  0  0  0  0  0  0  0  0  0  0  0
   15.1613   -4.6513   21.7913 C   0  0  0  0  0  0  0  0  0  0  0  0
    9.5894   -9.9116   26.3528 H   0  0  0  0  0  0  0  0  0  0  0  0
   10.2436   -8.7573   25.1803 H   0  0  0  0  0  0  0  0  0  0  0  0
   10.6256   -8.5824   26.9026 H   0  0  0  0  0  0  0  0  0  0  0  0
    8.2501   -8.0824   27.4091 H   0  0  0  0  0  0  0  0  0  0  0  0
    8.9207   -6.9271   26.2448 H   0  0  0  0  0  0  0  0  0  0  0  0
    4.8639   -7.4207   24.0674 H   0  0  0  0  0  0  0  0  0  0  0  0
    4.6675   -8.3859   25.4267 H   0  0  0  0  0  0  0  0  0  0  0  0
    4.1121   -6.7596   26.9971 H   0  0  0  0  0  0  0  0  0  0  0  0
    3.1080   -6.4774   25.5947 H   0  0  0  0  0  0  0  0  0  0  0  0
    4.6597   -4.5914   26.9615 H   0  0  0  0  0  0  0  0  0  0  0  0
    3.9309   -4.3259   25.4196 H   0  0  0  0  0  0  0  0  0  0  0  0
    6.7021   -4.6565   26.1526 H   0  0  0  0  0  0  0  0  0  0  0  0
    6.1047   -4.0048   24.6730 H   0  0  0  0  0  0  0  0  0  0  0  0
    7.5999   -6.0019   24.8515 H   0  0  0  0  0  0  0  0  0  0  0  0
    7.5067   -4.4257   23.1351 H   0  0  0  0  0  0  0  0  0  0  0  0
    8.4541   -3.7324   20.8357 H   0  0  0  0  0  0  0  0  0  0  0  0
    7.6963   -4.9760   20.0695 H   0  0  0  0  0  0  0  0  0  0  0  0
   11.2849   -7.2868   21.2780 H   0  0  0  0  0  0  0  0  0  0  0  0
   13.1689   -6.5296   22.6816 H   0  0  0  0  0  0  0  0  0  0  0  0
   11.4134   -3.5678   21.9578 H   0  0  0  0  0  0  0  0  0  0  0  0
   14.1283   -2.3382   19.8575 H   0  0  0  0  0  0  0  0  0  0  0  0
   13.8839   -2.0694   21.6189 H   0  0  0  0  0  0  0  0  0  0  0  0
   15.9714   -2.7705   21.6663 H   0  0  0  0  0  0  0  0  0  0  0  0
   15.8393   -5.4367   21.4462 H   0  0  0  0  0  0  0  0  0  0  0  0
   15.2817   -4.5091   22.8711 H   0  0  0  0  0  0  0  0  0  0  0  0
  1  2  1  0
  2  3  1  0
  3  4  2  0
  3  5  1  0
  5  6  1  0
  6  7  1  0
  7  8  1  0
  8  9  1  0
  9 10  1  0
 10 11  1  0
 11 12  2  0
 11 13  1  0
 13 14  1  0
 14 15  1  0
 15 16  2  0
 16 17  1  0
 17 18  2  0
 18 19  1  0
 19 20  2  0
 19 21  1  0
 21 22  1  0
 22 23  1  0
 10  5  1  0
 20 15  1  0
 23 18  1  0
  1 24  1  0
  1 25  1  0
  1 26  1  0
  2 27  1  0
  2 28  1  0
  6 29  1  0
  6 30  1  0
  7 31  1  0
  7 32  1  0
  8 33  1  0
  8 34  1  0
  9 35  1  0
  9 36  1  0
 10 37  1  0
 13 38  1  0
 14 39  1  0
 14 40  1  0
 16 41  1  0
 17 42  1  0
 20 43  1  0
 21 44  1  0
 21 45  1  0
 22 46  1  0
 23 47  1  0
 23 48  1  0
M  END
>  <Energy>  (454) 
487.90843139124667

>  <compound_id>  (454) 
65624

>  <target_id>  (454) 
1

>  <reference_id>  (454) 
146

>  <inspiration_ids>  (454) 
[44, 146]

>  <energy_score>  (454) 
432.1589803100594

>  <distance_score>  (454) 
9.504538056288997

>  <path>  (454) 
/opt/xchem-fragalysis-2/maxwin/BulkDock/SCRATCH/511020/C65624-P146/C65624-P146.minimised.mol

>  <scratch_subdir>  (454) 
/opt/xchem-fragalysis-2/maxwin/BulkDock/SCRATCH/511020/C65624-P146

>  <fragmenstein_runtime>  (454) 
29.976282119750977

>  <fragmenstein_outcome>  (454) 
too moved

>  <fragmenstein_mode>  (454) 
expansion

>  <fragmenstein_error>  (454) 


$$$$
C65630-P44
     RDKit          3D

 49 53  0  0  0  0  0  0  0  0999 V2000
    4.8044    0.8630   22.8522 C   0  0  0  0  0  0  0  0  0  0  0  0
    4.1888    1.6849   24.0185 C   0  0  0  0  0  0  0  0  0  0  0  0
    3.2228    2.6087   23.7681 C   0  0  0  0  0  0  0  0  0  0  0  0
    2.6675    2.5639   22.5038 C   0  0  0  0  0  0  0  0  0  0  0  0
    3.0716    1.5593   21.3465 C   0  0  0  0  0  0  0  0  0  0  0  0
    4.6906    0.8000   21.1767 C   0  0  0  0  0  0  0  0  0  0  0  0
    6.4093    0.3107   19.9248 C   0  0  0  0  0  0  0  0  0  0  0  0
    8.1504    0.2722   18.8966 N   0  0  0  0  0  0  0  0  0  0  0  0
    9.1754   -0.5690   19.8594 C   0  0  0  0  0  0  0  0  0  0  0  0
   10.2634   -2.5128   20.3958 C   0  0  0  0  0  0  0  0  0  0  0  0
   11.6547   -2.5775   18.5775 C   0  0  0  0  0  0  0  0  0  0  0  0
   10.6750   -1.5614   17.0204 C   0  0  0  0  0  0  0  0  0  0  0  0
   10.8790   -2.2616   15.6624 C   0  0  0  0  0  0  0  0  0  0  0  0
   10.0551   -2.2261   14.6273 N   0  0  0  0  0  0  0  0  0  0  0  0
   10.8125   -2.3325   13.4601 N   0  0  0  0  0  0  0  0  0  0  0  0
   12.0598   -2.4560   13.8316 C   0  0  0  0  0  0  0  0  0  0  0  0
   12.1254   -2.5918   15.1850 N   0  0  0  0  0  0  0  0  0  0  0  0
   13.4913   -2.4693   15.6709 C   0  0  0  0  0  0  0  0  0  0  0  0
   14.3330   -2.6192   14.3885 C   0  0  0  0  0  0  0  0  0  0  0  0
   13.3880   -2.2507   13.2233 C   0  0  0  0  0  0  0  0  0  0  0  0
    9.0506   -0.2452   17.2390 C   0  0  0  0  0  0  0  0  0  0  0  0
    1.6815    3.7062   22.4131 C   0  0  0  0  0  0  0  0  0  0  0  0
    1.3619    4.0558   23.8284 N   0  0  0  0  0  0  0  0  0  0  0  0
    2.5333    3.6039   24.6219 C   0  0  0  0  0  0  0  0  0  0  0  0
    5.1756   -0.0582   23.3331 H   0  0  0  0  0  0  0  0  0  0  0  0
    4.5250    1.4600   25.0266 H   0  0  0  0  0  0  0  0  0  0  0  0
    2.4455    1.9233   20.5126 H   0  0  0  0  0  0  0  0  0  0  0  0
    7.0394    1.1945   20.2428 H   0  0  0  0  0  0  0  0  0  0  0  0
    6.6965   -0.6712   20.3526 H   0  0  0  0  0  0  0  0  0  0  0  0
    9.2632    0.2463   20.6080 H   0  0  0  0  0  0  0  0  0  0  0  0
    8.2683   -1.0546   19.4766 H   0  0  0  0  0  0  0  0  0  0  0  0
   11.0234   -2.9679   21.2309 H   0  0  0  0  0  0  0  0  0  0  0  0
    9.2655   -3.1290   20.4554 H   0  0  0  0  0  0  0  0  0  0  0  0
   11.8649   -3.6050   18.1689 H   0  0  0  0  0  0  0  0  0  0  0  0
   12.6789   -2.1334   18.5828 H   0  0  0  0  0  0  0  0  0  0  0  0
   11.4219   -0.9170   16.5649 H   0  0  0  0  0  0  0  0  0  0  0  0
   13.6128   -1.4814   16.1234 H   0  0  0  0  0  0  0  0  0  0  0  0
   13.6847   -3.2659   16.3926 H   0  0  0  0  0  0  0  0  0  0  0  0
   14.6495   -3.6642   14.2902 H   0  0  0  0  0  0  0  0  0  0  0  0
   15.2383   -2.0049   14.4064 H   0  0  0  0  0  0  0  0  0  0  0  0
   13.5491   -2.8601   12.3354 H   0  0  0  0  0  0  0  0  0  0  0  0
   13.5146   -1.1972   12.9519 H   0  0  0  0  0  0  0  0  0  0  0  0
    8.2947   -0.3990   16.4600 H   0  0  0  0  0  0  0  0  0  0  0  0
    9.5374    0.7220   17.0524 H   0  0  0  0  0  0  0  0  0  0  0  0
    0.7711    3.4527   21.8628 H   0  0  0  0  0  0  0  0  0  0  0  0
    2.1595    4.5633   21.9261 H   0  0  0  0  0  0  0  0  0  0  0  0
    0.5671    3.4851   24.1068 H   0  0  0  0  0  0  0  0  0  0  0  0
    2.1992    3.1670   25.5680 H   0  0  0  0  0  0  0  0  0  0  0  0
    3.1917    4.4545   24.8248 H   0  0  0  0  0  0  0  0  0  0  0  0
  1  2  2  0
  2  3  1  0
  3  4  2  0
  4  5  1  0
  5  6  2  0
  6  7  1  0
  7  8  1  0
  8  9  1  0
  9 10  1  0
 10 11  1  0
 11 12  1  0
 12 13  1  0
 13 14  2  0
 14 15  1  0
 15 16  2  0
 16 17  1  0
 17 18  1  0
 18 19  1  0
 19 20  1  0
 12 21  1  0
  4 22  1  0
 22 23  1  0
 23 24  1  0
  6  1  1  0
 21  8  1  0
 24  3  1  0
 17 13  1  0
 20 16  1  0
  1 25  1  0
  2 26  1  0
  5 27  1  0
  7 28  1  0
  7 29  1  0
  9 30  1  0
  9 31  1  0
 10 32  1  0
 10 33  1  0
 11 34  1  0
 11 35  1  0
 12 36  1  0
 18 37  1  0
 18 38  1  0
 19 39  1  0
 19 40  1  0
 20 41  1  0
 20 42  1  0
 21 43  1  0
 21 44  1  0
 22 45  1  0
 22 46  1  0
 23 47  1  0
 24 48  1  0
 24 49  1  0
M  END
>  <Energy>  (455) 
1276.9839204939269

>  <compound_id>  (455) 
65630

>  <target_id>  (455) 
1

>  <reference_id>  (455) 
44

>  <inspiration_ids>  (455) 
[44, 146]

>  <energy_score>  (455) 
1191.9255543235172

>  <distance_score>  (455) 
6.582321889825899

>  <path>  (455) 
/opt/xchem-fragalysis-2/maxwin/BulkDock/SCRATCH/511020/C65630-P44/C65630-P44.minimised.mol

>  <scratch_subdir>  (455) 
/opt/xchem-fragalysis-2/maxwin/BulkDock/SCRATCH/511020/C65630-P44

>  <fragmenstein_runtime>  (455) 
18.905550479888916

>  <fragmenstein_outcome>  (455) 
too moved

>  <fragmenstein_mode>  (455) 
expansion

>  <fragmenstein_error>  (455) 


$$$$
C65630-P146
     RDKit          3D

 49 53  0  0  0  0  0  0  0  0999 V2000
    9.5209    0.1914   26.0892 C   0  0  0  0  0  0  0  0  0  0  0  0
    8.2674   -0.0652   26.8201 C   0  0  0  0  0  0  0  0  0  0  0  0
    7.2138    0.8848   26.9836 C   0  0  0  0  0  0  0  0  0  0  0  0
    7.4277    2.1618   26.5138 C   0  0  0  0  0  0  0  0  0  0  0  0
    8.6809    2.4381   25.7933 C   0  0  0  0  0  0  0  0  0  0  0  0
    9.7814    1.4279   25.4802 C   0  0  0  0  0  0  0  0  0  0  0  0
   11.2002    1.7334   24.5007 C   0  0  0  0  0  0  0  0  0  0  0  0
   12.1899    0.6653   23.7354 N   0  0  0  0  0  0  0  0  0  0  0  0
   12.9206   -0.2141   24.6676 C   0  0  0  0  0  0  0  0  0  0  0  0
   14.4298   -0.5008   24.3627 C   0  0  0  0  0  0  0  0  0  0  0  0
   14.8292   -0.9801   22.9379 C   0  0  0  0  0  0  0  0  0  0  0  0
   14.3052   -0.0609   21.8307 C   0  0  0  0  0  0  0  0  0  0  0  0
   15.4902    0.4230   20.8374 C   0  0  0  0  0  0  0  0  0  0  0  0
   16.0664    1.6229   20.9064 N   0  0  0  0  0  0  0  0  0  0  0  0
   16.9644    1.7865   19.8438 N   0  0  0  0  0  0  0  0  0  0  0  0
   16.9680    0.6732   19.1565 C   0  0  0  0  0  0  0  0  0  0  0  0
   16.0976   -0.2093   19.7457 N   0  0  0  0  0  0  0  0  0  0  0  0
   16.0463   -1.4326   18.9656 C   0  0  0  0  0  0  0  0  0  0  0  0
   17.2189   -1.3138   17.9414 C   0  0  0  0  0  0  0  0  0  0  0  0
   17.5935    0.1744   17.9016 C   0  0  0  0  0  0  0  0  0  0  0  0
   13.2744    1.1225   22.6036 C   0  0  0  0  0  0  0  0  0  0  0  0
    6.2099    2.9907   26.9152 C   0  0  0  0  0  0  0  0  0  0  0  0
    5.1217    2.0312   27.2870 N   0  0  0  0  0  0  0  0  0  0  0  0
    5.8407    0.7703   27.6103 C   0  0  0  0  0  0  0  0  0  0  0  0
   10.2267   -0.6292   25.9774 H   0  0  0  0  0  0  0  0  0  0  0  0
    8.1228   -1.0727   27.2133 H   0  0  0  0  0  0  0  0  0  0  0  0
    8.8385    3.4531   25.4227 H   0  0  0  0  0  0  0  0  0  0  0  0
   10.7932    2.3414   23.6846 H   0  0  0  0  0  0  0  0  0  0  0  0
   11.8430    2.3568   25.1322 H   0  0  0  0  0  0  0  0  0  0  0  0
   12.8786    0.2043   25.6807 H   0  0  0  0  0  0  0  0  0  0  0  0
   12.3925   -1.1731   24.7106 H   0  0  0  0  0  0  0  0  0  0  0  0
   15.0062    0.4054   24.5926 H   0  0  0  0  0  0  0  0  0  0  0  0
   14.7740   -1.2581   25.0788 H   0  0  0  0  0  0  0  0  0  0  0  0
   14.4192   -1.9876   22.7927 H   0  0  0  0  0  0  0  0  0  0  0  0
   15.9199   -1.0817   22.8935 H   0  0  0  0  0  0  0  0  0  0  0  0
   13.6800   -0.6902   21.2005 H   0  0  0  0  0  0  0  0  0  0  0  0
   16.1667   -2.2855   19.6382 H   0  0  0  0  0  0  0  0  0  0  0  0
   15.0797   -1.4714   18.4623 H   0  0  0  0  0  0  0  0  0  0  0  0
   16.9508   -1.7114   16.9579 H   0  0  0  0  0  0  0  0  0  0  0  0
   18.0720   -1.8972   18.3104 H   0  0  0  0  0  0  0  0  0  0  0  0
   17.1452    0.6692   17.0345 H   0  0  0  0  0  0  0  0  0  0  0  0
   18.6761    0.3225   17.8878 H   0  0  0  0  0  0  0  0  0  0  0  0
   13.9382    1.8455   23.0954 H   0  0  0  0  0  0  0  0  0  0  0  0
   12.7211    1.6810   21.8459 H   0  0  0  0  0  0  0  0  0  0  0  0
    6.4697    3.5907   27.7947 H   0  0  0  0  0  0  0  0  0  0  0  0
    5.8869    3.6673   26.1192 H   0  0  0  0  0  0  0  0  0  0  0  0
    4.5615    1.8487   26.4536 H   0  0  0  0  0  0  0  0  0  0  0  0
    5.9379    0.6695   28.6959 H   0  0  0  0  0  0  0  0  0  0  0  0
    5.2978   -0.0903   27.2075 H   0  0  0  0  0  0  0  0  0  0  0  0
  1  2  2  0
  2  3  1  0
  3  4  2  0
  4  5  1  0
  5  6  2  0
  6  7  1  0
  7  8  1  0
  8  9  1  0
  9 10  1  0
 10 11  1  0
 11 12  1  0
 12 13  1  0
 13 14  2  0
 14 15  1  0
 15 16  2  0
 16 17  1  0
 17 18  1  0
 18 19  1  0
 19 20  1  0
 12 21  1  0
  4 22  1  0
 22 23  1  0
 23 24  1  0
  6  1  1  0
 21  8  1  0
 24  3  1  0
 17 13  1  0
 20 16  1  0
  1 25  1  0
  2 26  1  0
  5 27  1  0
  7 28  1  0
  7 29  1  0
  9 30  1  0
  9 31  1  0
 10 32  1  0
 10 33  1  0
 11 34  1  0
 11 35  1  0
 12 36  1  0
 18 37  1  0
 18 38  1  0
 19 39  1  0
 19 40  1  0
 20 41  1  0
 20 42  1  0
 21 43  1  0
 21 44  1  0
 22 45  1  0
 22 46  1  0
 23 47  1  0
 24 48  1  0
 24 49  1  0
M  END
>  <Energy>  (456) 
144.64589378402133

>  <compound_id>  (456) 
65630

>  <target_id>  (456) 
1

>  <reference_id>  (456) 
146

>  <inspiration_ids>  (456) 
[44, 146]

>  <energy_score>  (456) 
61.056035866015236

>  <distance_score>  (456) 
7.041096407135734

>  <path>  (456) 
/opt/xchem-fragalysis-2/maxwin/BulkDock/SCRATCH/511020/C65630-P146/C65630-P146.minimised.mol

>  <scratch_subdir>  (456) 
/opt/xchem-fragalysis-2/maxwin/BulkDock/SCRATCH/511020/C65630-P146

>  <fragmenstein_runtime>  (456) 
14.704431772232056

>  <fragmenstein_outcome>  (456) 
too moved

>  <fragmenstein_mode>  (456) 
expansion

>  <fragmenstein_error>  (456) 


$$$$
C65636-P44
     RDKit          3D

 50 52  0  0  0  0  0  0  0  0999 V2000
   12.7998   -1.9296   26.8132 O   0  0  0  0  0  0  0  0  0  0  0  0
   11.9397   -1.8172   26.0190 C   0  0  0  0  0  0  0  0  0  0  0  0
   11.7833   -2.4367   24.6928 N   0  0  0  0  0  0  0  0  0  0  0  0
   12.5905   -3.4430   24.0084 C   0  0  0  0  0  0  0  0  0  0  0  0
   13.2711   -3.0909   22.6864 C   0  0  0  0  0  0  0  0  0  0  0  0
   14.1739   -2.0078   22.6071 C   0  0  0  0  0  0  0  0  0  0  0  0
   14.8637   -1.6997   21.4200 C   0  0  0  0  0  0  0  0  0  0  0  0
   14.6467   -2.4827   20.3006 C   0  0  0  0  0  0  0  0  0  0  0  0
   13.7717   -3.5639   20.3524 C   0  0  0  0  0  0  0  0  0  0  0  0
   13.0916   -3.8870   21.5297 C   0  0  0  0  0  0  0  0  0  0  0  0
   13.7258   -4.2060   18.9992 C   0  0  0  0  0  0  0  0  0  0  0  0
   14.3627   -3.2246   18.0839 N   0  0  0  0  0  0  0  0  0  0  0  0
   15.2255   -2.3753   18.9272 C   0  0  0  0  0  0  0  0  0  0  0  0
   10.7004   -0.9588   26.0503 N   0  0  0  0  0  0  0  0  0  0  0  0
    9.5290   -1.7433   26.6822 C   0  0  0  0  0  0  0  0  0  0  0  0
    8.0526   -1.2756   26.5012 C   0  0  0  0  0  0  0  0  0  0  0  0
    7.7670    0.0637   27.1672 C   0  0  0  0  0  0  0  0  0  0  0  0
    6.4422    0.7322   26.7340 C   0  0  0  0  0  0  0  0  0  0  0  0
    5.1824   -0.0196   27.1743 C   0  0  0  0  0  0  0  0  0  0  0  0
    4.0744    0.1433   26.1398 C   0  0  0  0  0  0  0  0  0  0  0  0
    4.4283   -0.6192   24.9940 O   0  0  0  0  0  0  0  0  0  0  0  0
    8.9779    0.9064   26.8000 C   0  0  0  0  0  0  0  0  0  0  0  0
   10.2598    0.0854   27.0496 C   0  0  0  0  0  0  0  0  0  0  0  0
   10.9643   -2.0533   24.2425 H   0  0  0  0  0  0  0  0  0  0  0  0
   11.9181   -4.2924   23.8490 H   0  0  0  0  0  0  0  0  0  0  0  0
   13.3648   -3.7781   24.7084 H   0  0  0  0  0  0  0  0  0  0  0  0
   14.3316   -1.3868   23.4885 H   0  0  0  0  0  0  0  0  0  0  0  0
   15.5432   -0.8543   21.3908 H   0  0  0  0  0  0  0  0  0  0  0  0
   12.4122   -4.7337   21.5376 H   0  0  0  0  0  0  0  0  0  0  0  0
   14.3041   -5.1351   19.0221 H   0  0  0  0  0  0  0  0  0  0  0  0
   12.7099   -4.4094   18.6631 H   0  0  0  0  0  0  0  0  0  0  0  0
   14.9181   -3.7332   17.4004 H   0  0  0  0  0  0  0  0  0  0  0  0
   16.2528   -2.7560   18.9284 H   0  0  0  0  0  0  0  0  0  0  0  0
   15.2169   -1.3462   18.5594 H   0  0  0  0  0  0  0  0  0  0  0  0
    9.7491   -2.0454   27.7213 H   0  0  0  0  0  0  0  0  0  0  0  0
    9.5669   -2.7127   26.1622 H   0  0  0  0  0  0  0  0  0  0  0  0
    7.3867   -2.0510   26.8944 H   0  0  0  0  0  0  0  0  0  0  0  0
    7.8560   -1.1880   25.4390 H   0  0  0  0  0  0  0  0  0  0  0  0
    7.7508   -0.0773   28.2560 H   0  0  0  0  0  0  0  0  0  0  0  0
    6.4014    1.7502   27.1422 H   0  0  0  0  0  0  0  0  0  0  0  0
    6.4482    0.8448   25.6488 H   0  0  0  0  0  0  0  0  0  0  0  0
    5.3897   -1.0863   27.3059 H   0  0  0  0  0  0  0  0  0  0  0  0
    4.8502    0.3731   28.1417 H   0  0  0  0  0  0  0  0  0  0  0  0
    3.9428    1.1926   25.8558 H   0  0  0  0  0  0  0  0  0  0  0  0
    3.1276   -0.2397   26.5301 H   0  0  0  0  0  0  0  0  0  0  0  0
    3.9961   -0.2216   24.2061 H   0  0  0  0  0  0  0  0  0  0  0  0
    8.9483    1.2231   25.7520 H   0  0  0  0  0  0  0  0  0  0  0  0
    8.9958    1.8138   27.4150 H   0  0  0  0  0  0  0  0  0  0  0  0
   10.4032   -0.2132   28.1025 H   0  0  0  0  0  0  0  0  0  0  0  0
   11.0716    0.8219   26.9376 H   0  0  0  0  0  0  0  0  0  0  0  0
  1  2  2  0
  2  3  1  0
  3  4  1  0
  4  5  1  0
  5  6  2  0
  6  7  1  0
  7  8  2  0
  8  9  1  0
  9 10  2  0
  9 11  1  0
 11 12  1  0
 12 13  1  0
  2 14  1  0
 14 15  1  0
 15 16  1  0
 16 17  1  0
 17 18  1  0
 18 19  1  0
 19 20  1  0
 20 21  1  0
 17 22  1  0
 22 23  1  0
 10  5  1  0
 23 14  1  0
 13  8  1  0
  3 24  1  0
  4 25  1  0
  4 26  1  0
  6 27  1  0
  7 28  1  0
 10 29  1  0
 11 30  1  0
 11 31  1  0
 12 32  1  0
 13 33  1  0
 13 34  1  0
 15 35  1  0
 15 36  1  0
 16 37  1  0
 16 38  1  0
 17 39  1  0
 18 40  1  0
 18 41  1  0
 19 42  1  0
 19 43  1  0
 20 44  1  0
 20 45  1  0
 21 46  1  0
 22 47  1  0
 22 48  1  0
 23 49  1  0
 23 50  1  0
M  END
>  <Energy>  (457) 
32.465821788580513

>  <compound_id>  (457) 
65636

>  <target_id>  (457) 
1

>  <reference_id>  (457) 
44

>  <inspiration_ids>  (457) 
[44, 146]

>  <energy_score>  (457) 
34.031416465500826

>  <distance_score>  (457) 
8.801318130372795

>  <path>  (457) 
/opt/xchem-fragalysis-2/maxwin/BulkDock/SCRATCH/511020/C65636-P44/C65636-P44.minimised.mol

>  <scratch_subdir>  (457) 
/opt/xchem-fragalysis-2/maxwin/BulkDock/SCRATCH/511020/C65636-P44

>  <fragmenstein_runtime>  (457) 
17.921706914901733

>  <fragmenstein_outcome>  (457) 
too moved

>  <fragmenstein_mode>  (457) 
expansion

>  <fragmenstein_error>  (457) 


$$$$
C65636-P146
     RDKit          3D

 50 52  0  0  0  0  0  0  0  0999 V2000
    4.2490    1.7110   22.4120 O   0  0  0  0  0  0  0  0  0  0  0  0
    4.7900    0.6696   22.4492 C   0  0  0  0  0  0  0  0  0  0  0  0
    5.8093   -0.1862   21.2363 N   0  0  0  0  0  0  0  0  0  0  0  0
    6.5766    0.3091   19.4991 C   0  0  0  0  0  0  0  0  0  0  0  0
    8.0171    1.1756   19.1882 C   0  0  0  0  0  0  0  0  0  0  0  0
    8.5655    2.2201   19.9343 C   0  0  0  0  0  0  0  0  0  0  0  0
    9.5563    3.0659   19.3761 C   0  0  0  0  0  0  0  0  0  0  0  0
    9.9800    2.8751   18.0656 C   0  0  0  0  0  0  0  0  0  0  0  0
    9.5022    1.8158   17.3260 C   0  0  0  0  0  0  0  0  0  0  0  0
    8.5806    0.9486   17.8806 C   0  0  0  0  0  0  0  0  0  0  0  0
   10.0057    1.8930   15.9231 C   0  0  0  0  0  0  0  0  0  0  0  0
   11.0267    2.9642   15.9261 N   0  0  0  0  0  0  0  0  0  0  0  0
   10.8388    3.7259   17.1894 C   0  0  0  0  0  0  0  0  0  0  0  0
    4.8935   -0.3642   24.0066 N   0  0  0  0  0  0  0  0  0  0  0  0
    3.9069   -1.3124   24.2852 C   0  0  0  0  0  0  0  0  0  0  0  0
    4.3812   -2.4814   25.3368 C   0  0  0  0  0  0  0  0  0  0  0  0
    4.5493   -2.0207   26.7867 C   0  0  0  0  0  0  0  0  0  0  0  0
    3.2413   -1.9245   27.6106 C   0  0  0  0  0  0  0  0  0  0  0  0
    2.9293   -3.2688   28.2891 C   0  0  0  0  0  0  0  0  0  0  0  0
    1.6109   -3.2375   29.0522 C   0  0  0  0  0  0  0  0  0  0  0  0
    0.5544   -3.4935   28.1421 O   0  0  0  0  0  0  0  0  0  0  0  0
    5.2028   -0.6815   26.6338 C   0  0  0  0  0  0  0  0  0  0  0  0
    4.4194   -0.0068   25.5299 C   0  0  0  0  0  0  0  0  0  0  0  0
    6.0456   -1.1317   21.5373 H   0  0  0  0  0  0  0  0  0  0  0  0
    7.3768   -0.4171   19.8003 H   0  0  0  0  0  0  0  0  0  0  0  0
    6.4921   -0.4269   18.6488 H   0  0  0  0  0  0  0  0  0  0  0  0
    8.1985    2.4768   20.9119 H   0  0  0  0  0  0  0  0  0  0  0  0
    9.9186    3.9145   19.9512 H   0  0  0  0  0  0  0  0  0  0  0  0
    8.1588    0.2047   17.2124 H   0  0  0  0  0  0  0  0  0  0  0  0
   10.4383    0.9452   15.5893 H   0  0  0  0  0  0  0  0  0  0  0  0
    9.1911    2.1739   15.2476 H   0  0  0  0  0  0  0  0  0  0  0  0
   11.9490    2.5151   15.9976 H   0  0  0  0  0  0  0  0  0  0  0  0
   11.8014    3.9492   17.6583 H   0  0  0  0  0  0  0  0  0  0  0  0
   10.3249    4.6666   16.9650 H   0  0  0  0  0  0  0  0  0  0  0  0
    2.9800   -0.7848   24.4995 H   0  0  0  0  0  0  0  0  0  0  0  0
    3.8131   -1.9156   23.3925 H   0  0  0  0  0  0  0  0  0  0  0  0
    5.3652   -2.8290   24.9991 H   0  0  0  0  0  0  0  0  0  0  0  0
    3.7360   -3.3643   25.3024 H   0  0  0  0  0  0  0  0  0  0  0  0
    5.2407   -2.6940   27.3088 H   0  0  0  0  0  0  0  0  0  0  0  0
    3.3650   -1.1792   28.4071 H   0  0  0  0  0  0  0  0  0  0  0  0
    2.3995   -1.5858   27.0073 H   0  0  0  0  0  0  0  0  0  0  0  0
    2.9112   -4.0679   27.5392 H   0  0  0  0  0  0  0  0  0  0  0  0
    3.7370   -3.4919   28.9967 H   0  0  0  0  0  0  0  0  0  0  0  0
    1.4499   -2.2732   29.5450 H   0  0  0  0  0  0  0  0  0  0  0  0
    1.5920   -4.0273   29.8092 H   0  0  0  0  0  0  0  0  0  0  0  0
   -0.2609   -3.0940   28.4992 H   0  0  0  0  0  0  0  0  0  0  0  0
    5.1720   -0.1035   27.5640 H   0  0  0  0  0  0  0  0  0  0  0  0
    6.2571   -0.7811   26.3493 H   0  0  0  0  0  0  0  0  0  0  0  0
    4.7049    1.0249   25.6757 H   0  0  0  0  0  0  0  0  0  0  0  0
    3.3581    0.2056   25.7780 H   0  0  0  0  0  0  0  0  0  0  0  0
  1  2  2  0
  2  3  1  0
  3  4  1  0
  4  5  1  0
  5  6  2  0
  6  7  1  0
  7  8  2  0
  8  9  1  0
  9 10  2  0
  9 11  1  0
 11 12  1  0
 12 13  1  0
  2 14  1  0
 14 15  1  0
 15 16  1  0
 16 17  1  0
 17 18  1  0
 18 19  1  0
 19 20  1  0
 20 21  1  0
 17 22  1  0
 22 23  1  0
 10  5  1  0
 23 14  1  0
 13  8  1  0
  3 24  1  0
  4 25  1  0
  4 26  1  0
  6 27  1  0
  7 28  1  0
 10 29  1  0
 11 30  1  0
 11 31  1  0
 12 32  1  0
 13 33  1  0
 13 34  1  0
 15 35  1  0
 15 36  1  0
 16 37  1  0
 16 38  1  0
 17 39  1  0
 18 40  1  0
 18 41  1  0
 19 42  1  0
 19 43  1  0
 20 44  1  0
 20 45  1  0
 21 46  1  0
 22 47  1  0
 22 48  1  0
 23 49  1  0
 23 50  1  0
M  END
>  <Energy>  (458) 
297.22050481082101

>  <compound_id>  (458) 
65636

>  <target_id>  (458) 
1

>  <reference_id>  (458) 
146

>  <inspiration_ids>  (458) 
[44, 146]

>  <energy_score>  (458) 
298.7860994877388

>  <distance_score>  (458) 
7.520317689718941

>  <path>  (458) 
/opt/xchem-fragalysis-2/maxwin/BulkDock/SCRATCH/511020/C65636-P146/C65636-P146.minimised.mol

>  <scratch_subdir>  (458) 
/opt/xchem-fragalysis-2/maxwin/BulkDock/SCRATCH/511020/C65636-P146

>  <fragmenstein_runtime>  (458) 
16.49436354637146

>  <fragmenstein_outcome>  (458) 
too moved

>  <fragmenstein_mode>  (458) 
expansion

>  <fragmenstein_error>  (458) 


$$$$
C84582-P93
     RDKit          3D

 28 28  0  0  0  0  0  0  0  0999 V2000
   13.8049    1.8693   15.8398 C   0  0  0  0  0  0  0  0  0  0  0  0
   13.2211    0.7893   14.9367 C   0  0  0  0  0  0  0  0  0  0  0  0
   14.2772   -0.1574   14.5674 N   0  0  0  0  0  0  0  0  0  0  0  0
   14.5473   -0.1352   13.1304 C   0  0  0  0  0  0  0  0  0  0  0  0
   14.1214   -1.5323   15.0952 C   0  0  0  0  0  0  0  0  0  0  0  0
   14.2698   -1.5435   16.6252 C   0  0  0  0  0  0  0  0  0  0  0  0
   14.1439   -2.9533   17.1961 C   0  0  0  0  0  0  0  0  0  0  0  0
   12.9400   -3.7242   16.6575 C   0  0  0  0  0  0  0  0  0  0  0  0
   12.0244   -2.8986   15.7669 C   0  0  0  0  0  0  0  0  0  0  0  0
   12.8155   -2.2273   14.6728 C   0  0  0  0  0  0  0  0  0  0  0  0
   12.4181   -2.2766   13.5098 O   0  0  0  0  0  0  0  0  0  0  0  0
   14.6031    2.4205   15.3312 H   0  0  0  0  0  0  0  0  0  0  0  0
   14.2137    1.4471   16.7633 H   0  0  0  0  0  0  0  0  0  0  0  0
   13.0257    2.5870   16.1169 H   0  0  0  0  0  0  0  0  0  0  0  0
   12.3854    0.3051   15.4547 H   0  0  0  0  0  0  0  0  0  0  0  0
   12.7807    1.2715   14.0546 H   0  0  0  0  0  0  0  0  0  0  0  0
   13.6750   -0.4000   12.5265 H   0  0  0  0  0  0  0  0  0  0  0  0
   14.8712    0.8669   12.8264 H   0  0  0  0  0  0  0  0  0  0  0  0
   15.3679   -0.8140   12.8734 H   0  0  0  0  0  0  0  0  0  0  0  0
   14.9355   -2.1571   14.7022 H   0  0  0  0  0  0  0  0  0  0  0  0
   13.5059   -0.9148   17.0984 H   0  0  0  0  0  0  0  0  0  0  0  0
   15.2421   -1.1257   16.9145 H   0  0  0  0  0  0  0  0  0  0  0  0
   15.0571   -3.5193   16.9727 H   0  0  0  0  0  0  0  0  0  0  0  0
   14.0867   -2.8956   18.2895 H   0  0  0  0  0  0  0  0  0  0  0  0
   13.3149   -4.5863   16.0986 H   0  0  0  0  0  0  0  0  0  0  0  0
   12.3714   -4.1457   17.4911 H   0  0  0  0  0  0  0  0  0  0  0  0
   11.5137   -2.1123   16.3254 H   0  0  0  0  0  0  0  0  0  0  0  0
   11.2606   -3.5403   15.3165 H   0  0  0  0  0  0  0  0  0  0  0  0
  1  2  1  0
  2  3  1  0
  3  4  1  0
  3  5  1  0
  5  6  1  0
  6  7  1  0
  7  8  1  0
  8  9  1  0
  9 10  1  0
 10 11  2  0
 10  5  1  0
  1 12  1  0
  1 13  1  0
  1 14  1  0
  2 15  1  0
  2 16  1  0
  4 17  1  0
  4 18  1  0
  4 19  1  0
  5 20  1  0
  6 21  1  0
  6 22  1  0
  7 23  1  0
  7 24  1  0
  8 25  1  0
  8 26  1  0
  9 27  1  0
  9 28  1  0
M  END
>  <Energy>  (459) 
45.258992494195802

>  <compound_id>  (459) 
84582

>  <target_id>  (459) 
1

>  <reference_id>  (459) 
93

>  <inspiration_ids>  (459) 
[93, 98]

>  <energy_score>  (459) 
-27.801200963565663

>  <distance_score>  (459) 
0.9877067796391064

>  <path>  (459) 
/opt/xchem-fragalysis-2/maxwin/BulkDock/SCRATCH/511020/C84582-P93/C84582-P93.minimised.mol

>  <scratch_subdir>  (459) 
/opt/xchem-fragalysis-2/maxwin/BulkDock/SCRATCH/511020/C84582-P93

>  <fragmenstein_runtime>  (459) 
2.544959545135498

>  <fragmenstein_outcome>  (459) 
acceptable

>  <fragmenstein_mode>  (459) 
expansion

>  <fragmenstein_error>  (459) 


$$$$
C84582-P98
     RDKit          3D

 28 28  0  0  0  0  0  0  0  0999 V2000
   13.7978    1.8597   15.8296 C   0  0  0  0  0  0  0  0  0  0  0  0
   13.1720    0.8224   14.9037 C   0  0  0  0  0  0  0  0  0  0  0  0
   14.2023   -0.1114   14.4394 N   0  0  0  0  0  0  0  0  0  0  0  0
   14.3229   -0.0984   12.9813 C   0  0  0  0  0  0  0  0  0  0  0  0
   14.1175   -1.4864   14.9867 C   0  0  0  0  0  0  0  0  0  0  0  0
   14.3631   -1.4901   16.5047 C   0  0  0  0  0  0  0  0  0  0  0  0
   14.2964   -2.9009   17.0791 C   0  0  0  0  0  0  0  0  0  0  0  0
   13.0299   -3.6559   16.6814 C   0  0  0  0  0  0  0  0  0  0  0  0
   12.0770   -2.8599   15.8010 C   0  0  0  0  0  0  0  0  0  0  0  0
   12.8114   -2.2279   14.6459 C   0  0  0  0  0  0  0  0  0  0  0  0
   12.3708   -2.3393   13.5023 O   0  0  0  0  0  0  0  0  0  0  0  0
   14.5764    2.4302   15.3116 H   0  0  0  0  0  0  0  0  0  0  0  0
   14.2437    1.4013   16.7172 H   0  0  0  0  0  0  0  0  0  0  0  0
   13.0338    2.5673   16.1681 H   0  0  0  0  0  0  0  0  0  0  0  0
   12.3514    0.3163   15.4246 H   0  0  0  0  0  0  0  0  0  0  0  0
   12.7037    1.3554   14.0660 H   0  0  0  0  0  0  0  0  0  0  0  0
   13.3895   -0.3564   12.4733 H   0  0  0  0  0  0  0  0  0  0  0  0
   14.6212    0.9001   12.6412 H   0  0  0  0  0  0  0  0  0  0  0  0
   15.1069   -0.7847   12.6429 H   0  0  0  0  0  0  0  0  0  0  0  0
   14.9246   -2.0875   14.5451 H   0  0  0  0  0  0  0  0  0  0  0  0
   13.6211   -0.8752   17.0278 H   0  0  0  0  0  0  0  0  0  0  0  0
   15.3461   -1.0576   16.7282 H   0  0  0  0  0  0  0  0  0  0  0  0
   15.1721   -3.4707   16.7436 H   0  0  0  0  0  0  0  0  0  0  0  0
   14.3686   -2.8513   18.1722 H   0  0  0  0  0  0  0  0  0  0  0  0
   13.3299   -4.5746   16.1705 H   0  0  0  0  0  0  0  0  0  0  0  0
   12.5113   -3.9894   17.5834 H   0  0  0  0  0  0  0  0  0  0  0  0
   11.6003   -2.0486   16.3540 H   0  0  0  0  0  0  0  0  0  0  0  0
   11.2862   -3.5113   15.4160 H   0  0  0  0  0  0  0  0  0  0  0  0
  1  2  1  0
  2  3  1  0
  3  4  1  0
  3  5  1  0
  5  6  1  0
  6  7  1  0
  7  8  1  0
  8  9  1  0
  9 10  1  0
 10 11  2  0
 10  5  1  0
  1 12  1  0
  1 13  1  0
  1 14  1  0
  2 15  1  0
  2 16  1  0
  4 17  1  0
  4 18  1  0
  4 19  1  0
  5 20  1  0
  6 21  1  0
  6 22  1  0
  7 23  1  0
  7 24  1  0
  8 25  1  0
  8 26  1  0
  9 27  1  0
  9 28  1  0
M  END
>  <Energy>  (460) 
45.668384620469823

>  <compound_id>  (460) 
84582

>  <target_id>  (460) 
1

>  <reference_id>  (460) 
98

>  <inspiration_ids>  (460) 
[93, 98]

>  <energy_score>  (460) 
-27.391808837291478

>  <distance_score>  (460) 
0.9662329462543658

>  <path>  (460) 
/opt/xchem-fragalysis-2/maxwin/BulkDock/SCRATCH/511020/C84582-P98/C84582-P98.minimised.mol

>  <scratch_subdir>  (460) 
/opt/xchem-fragalysis-2/maxwin/BulkDock/SCRATCH/511020/C84582-P98

>  <fragmenstein_runtime>  (460) 
3.2766807079315186

>  <fragmenstein_outcome>  (460) 
acceptable

>  <fragmenstein_mode>  (460) 
expansion

>  <fragmenstein_error>  (460) 


$$$$
C84586-P93
     RDKit          3D

 20 20  0  0  0  0  0  0  0  0999 V2000
   11.4594   -2.8916   14.6018 C   0  0  0  0  0  0  0  0  0  0  0  0
   12.2011   -1.5674   14.6020 C   0  0  0  0  0  0  0  0  0  0  0  0
   13.6503   -1.7766   14.7073 N   0  0  0  0  0  0  0  0  0  0  0  0
   14.3668   -1.8229   13.4394 C   0  0  0  0  0  0  0  0  0  0  0  0
   14.1663   -2.3831   15.8194 C   0  0  0  0  0  0  0  0  0  0  0  0
   14.8024   -3.5002   15.8892 N   0  0  0  0  0  0  0  0  0  0  0  0
   15.0136   -3.8966   17.1885 C   0  0  0  0  0  0  0  0  0  0  0  0
   15.6758   -4.8732   17.5168 O   0  0  0  0  0  0  0  0  0  0  0  0
   14.2846   -3.0731   18.2111 C   0  0  0  0  0  0  0  0  0  0  0  0
   13.9127   -1.5576   17.3272 S   0  0  0  0  0  0  0  0  0  0  0  0
   10.3878   -2.7204   14.7266 H   0  0  0  0  0  0  0  0  0  0  0  0
   11.6211   -3.4247   13.6616 H   0  0  0  0  0  0  0  0  0  0  0  0
   11.7711   -3.5410   15.4257 H   0  0  0  0  0  0  0  0  0  0  0  0
   11.8466   -0.9502   15.4351 H   0  0  0  0  0  0  0  0  0  0  0  0
   11.9626   -1.0045   13.6921 H   0  0  0  0  0  0  0  0  0  0  0  0
   13.8594   -2.4610   12.7103 H   0  0  0  0  0  0  0  0  0  0  0  0
   15.3956   -2.1775   13.5630 H   0  0  0  0  0  0  0  0  0  0  0  0
   14.4182   -0.8141   13.0158 H   0  0  0  0  0  0  0  0  0  0  0  0
   13.3710   -3.5913   18.5123 H   0  0  0  0  0  0  0  0  0  0  0  0
   14.9249   -2.8730   19.0726 H   0  0  0  0  0  0  0  0  0  0  0  0
  1  2  1  0
  2  3  1  0
  3  4  1  0
  3  5  1  0
  5  6  2  0
  6  7  1  0
  7  8  2  0
  7  9  1  0
  9 10  1  0
 10  5  1  0
  1 11  1  0
  1 12  1  0
  1 13  1  0
  2 14  1  0
  2 15  1  0
  4 16  1  0
  4 17  1  0
  4 18  1  0
  9 19  1  0
  9 20  1  0
M  END
>  <Energy>  (461) 
-40.715459731425852

>  <compound_id>  (461) 
84586

>  <target_id>  (461) 
1

>  <reference_id>  (461) 
93

>  <inspiration_ids>  (461) 
[93, 98]

>  <energy_score>  (461) 
-17.361521744131352

>  <distance_score>  (461) 
1.4199920820542893

>  <path>  (461) 
/opt/xchem-fragalysis-2/maxwin/BulkDock/SCRATCH/511020/C84586-P93/C84586-P93.minimised.mol

>  <scratch_subdir>  (461) 
/opt/xchem-fragalysis-2/maxwin/BulkDock/SCRATCH/511020/C84586-P93

>  <fragmenstein_runtime>  (461) 
1.8401241302490234

>  <fragmenstein_outcome>  (461) 
too moved

>  <fragmenstein_mode>  (461) 
expansion

>  <fragmenstein_error>  (461) 


$$$$
C84586-P98
     RDKit          3D

 20 20  0  0  0  0  0  0  0  0999 V2000
   12.4077   -2.2498   13.4333 C   0  0  0  0  0  0  0  0  0  0  0  0
   12.9106   -1.3482   14.5381 C   0  0  0  0  0  0  0  0  0  0  0  0
   14.1151   -1.8959   15.1606 N   0  0  0  0  0  0  0  0  0  0  0  0
   15.3796   -1.5820   14.4969 C   0  0  0  0  0  0  0  0  0  0  0  0
   14.1100   -2.8799   16.1118 C   0  0  0  0  0  0  0  0  0  0  0  0
   15.1448   -3.4784   16.6043 N   0  0  0  0  0  0  0  0  0  0  0  0
   14.7825   -4.3852   17.5744 C   0  0  0  0  0  0  0  0  0  0  0  0
   15.4712   -5.3215   17.9599 O   0  0  0  0  0  0  0  0  0  0  0  0
   13.4272   -4.1219   18.1544 C   0  0  0  0  0  0  0  0  0  0  0  0
   12.5807   -3.4028   16.7563 S   0  0  0  0  0  0  0  0  0  0  0  0
   11.6940   -1.6881   12.8403 H   0  0  0  0  0  0  0  0  0  0  0  0
   13.2175   -2.5508   12.7620 H   0  0  0  0  0  0  0  0  0  0  0  0
   11.9142   -3.1463   13.8146 H   0  0  0  0  0  0  0  0  0  0  0  0
   12.1208   -1.1480   15.2706 H   0  0  0  0  0  0  0  0  0  0  0  0
   13.1414   -0.3645   14.1096 H   0  0  0  0  0  0  0  0  0  0  0  0
   15.6744   -2.4002   13.8318 H   0  0  0  0  0  0  0  0  0  0  0  0
   15.3095   -0.6672   13.8991 H   0  0  0  0  0  0  0  0  0  0  0  0
   16.1758   -1.4223   15.2321 H   0  0  0  0  0  0  0  0  0  0  0  0
   13.5236   -3.4154   18.9820 H   0  0  0  0  0  0  0  0  0  0  0  0
   12.9700   -5.0430   18.5015 H   0  0  0  0  0  0  0  0  0  0  0  0
  1  2  1  0
  2  3  1  0
  3  4  1  0
  3  5  1  0
  5  6  2  0
  6  7  1  0
  7  8  2  0
  7  9  1  0
  9 10  1  0
 10  5  1  0
  1 11  1  0
  1 12  1  0
  1 13  1  0
  2 14  1  0
  2 15  1  0
  4 16  1  0
  4 17  1  0
  4 18  1  0
  9 19  1  0
  9 20  1  0
M  END
>  <Energy>  (462) 
-44.645534631334463

>  <compound_id>  (462) 
84586

>  <target_id>  (462) 
1

>  <reference_id>  (462) 
98

>  <inspiration_ids>  (462) 
[93, 98]

>  <energy_score>  (462) 
-21.291596644039927

>  <distance_score>  (462) 
1.2942295028652533

>  <path>  (462) 
/opt/xchem-fragalysis-2/maxwin/BulkDock/SCRATCH/511020/C84586-P98/C84586-P98.minimised.mol

>  <scratch_subdir>  (462) 
/opt/xchem-fragalysis-2/maxwin/BulkDock/SCRATCH/511020/C84586-P98

>  <fragmenstein_runtime>  (462) 
2.006979465484619

>  <fragmenstein_outcome>  (462) 
too moved

>  <fragmenstein_mode>  (462) 
expansion

>  <fragmenstein_error>  (462) 


$$$$
C84590-P93
     RDKit          3D

 34 35  0  0  0  0  0  0  0  0999 V2000
   13.4726    3.1704   15.7390 C   0  0  0  0  0  0  0  0  0  0  0  0
   13.8872    2.0813   16.7147 C   0  0  0  0  0  0  0  0  0  0  0  0
   13.6137    0.7161   16.2549 N   0  0  0  0  0  0  0  0  0  0  0  0
   14.4001    0.3591   15.0754 C   0  0  0  0  0  0  0  0  0  0  0  0
   14.4523   -1.1607   14.7240 C   0  0  0  0  0  0  0  0  0  0  0  0
   15.0846   -2.0022   15.8481 C   0  0  0  0  0  0  0  0  0  0  0  0
   14.1300   -3.0436   16.4477 C   0  0  0  0  0  0  0  0  0  0  0  0
   12.6871   -2.5559   16.5725 C   0  0  0  0  0  0  0  0  0  0  0  0
   12.0718   -1.9157   15.3231 C   0  0  0  0  0  0  0  0  0  0  0  0
   13.1299   -1.7574   14.2646 C   0  0  0  0  0  0  0  0  0  0  0  0
   12.8121   -1.0540   13.0795 O   0  0  0  0  0  0  0  0  0  0  0  0
   14.0773   -0.8973   12.3821 C   0  0  0  0  0  0  0  0  0  0  0  0
   15.1846   -1.2548   13.3781 C   0  0  0  0  0  0  0  0  0  0  0  0
   14.0864    3.1602   14.8332 H   0  0  0  0  0  0  0  0  0  0  0  0
   12.4228    3.0598   15.4478 H   0  0  0  0  0  0  0  0  0  0  0  0
   13.5892    4.1544   16.2049 H   0  0  0  0  0  0  0  0  0  0  0  0
   13.3277    2.2317   17.6454 H   0  0  0  0  0  0  0  0  0  0  0  0
   14.9474    2.1932   16.9715 H   0  0  0  0  0  0  0  0  0  0  0  0
   13.8602    0.0883   17.0181 H   0  0  0  0  0  0  0  0  0  0  0  0
   14.0087    0.9330   14.2290 H   0  0  0  0  0  0  0  0  0  0  0  0
   15.4370    0.6921   15.2235 H   0  0  0  0  0  0  0  0  0  0  0  0
   15.9789   -2.5240   15.4847 H   0  0  0  0  0  0  0  0  0  0  0  0
   15.4469   -1.3559   16.6566 H   0  0  0  0  0  0  0  0  0  0  0  0
   14.5008   -3.3459   17.4346 H   0  0  0  0  0  0  0  0  0  0  0  0
   14.1496   -3.9506   15.8382 H   0  0  0  0  0  0  0  0  0  0  0  0
   12.0592   -3.3850   16.9110 H   0  0  0  0  0  0  0  0  0  0  0  0
   12.6832   -1.7977   17.3511 H   0  0  0  0  0  0  0  0  0  0  0  0
   11.2630   -2.5498   14.9382 H   0  0  0  0  0  0  0  0  0  0  0  0
   11.5880   -0.9624   15.5614 H   0  0  0  0  0  0  0  0  0  0  0  0
   13.2858   -2.7685   13.9104 H   0  0  0  0  0  0  0  0  0  0  0  0
   14.1006   -1.5622   11.5140 H   0  0  0  0  0  0  0  0  0  0  0  0
   14.1477    0.1372   12.0331 H   0  0  0  0  0  0  0  0  0  0  0  0
   16.0554   -0.5984   13.2841 H   0  0  0  0  0  0  0  0  0  0  0  0
   15.5296   -2.2785   13.1845 H   0  0  0  0  0  0  0  0  0  0  0  0
  1  2  1  0
  2  3  1  0
  3  4  1  0
  4  5  1  0
  5  6  1  0
  6  7  1  0
  7  8  1  0
  8  9  1  0
  9 10  1  0
 10 11  1  0
 11 12  1  0
 12 13  1  0
 10  5  1  0
 13  5  1  0
  1 14  1  0
  1 15  1  0
  1 16  1  0
  2 17  1  0
  2 18  1  0
  3 19  1  0
  4 20  1  0
  4 21  1  0
  6 22  1  0
  6 23  1  0
  7 24  1  0
  7 25  1  0
  8 26  1  0
  8 27  1  0
  9 28  1  0
  9 29  1  0
 10 30  1  0
 12 31  1  0
 12 32  1  0
 13 33  1  0
 13 34  1  0
M  END
>  <Energy>  (463) 
39.670084121428658

>  <compound_id>  (463) 
84590

>  <target_id>  (463) 
1

>  <reference_id>  (463) 
93

>  <inspiration_ids>  (463) 
[93, 98]

>  <energy_score>  (463) 
-32.27714612679388

>  <distance_score>  (463) 
1.2562395671493691

>  <path>  (463) 
/opt/xchem-fragalysis-2/maxwin/BulkDock/SCRATCH/511020/C84590-P93/C84590-P93.minimised.mol

>  <scratch_subdir>  (463) 
/opt/xchem-fragalysis-2/maxwin/BulkDock/SCRATCH/511020/C84590-P93

>  <fragmenstein_runtime>  (463) 
1.3262619972229004

>  <fragmenstein_outcome>  (463) 
too moved

>  <fragmenstein_mode>  (463) 
expansion

>  <fragmenstein_error>  (463) 


$$$$
C84590-P98
     RDKit          3D

 34 35  0  0  0  0  0  0  0  0999 V2000
   13.4855    3.1444   15.6250 C   0  0  0  0  0  0  0  0  0  0  0  0
   13.9260    2.0329   16.5621 C   0  0  0  0  0  0  0  0  0  0  0  0
   13.5859    0.6828   16.1031 N   0  0  0  0  0  0  0  0  0  0  0  0
   14.3022    0.3086   14.8831 C   0  0  0  0  0  0  0  0  0  0  0  0
   14.3568   -1.2190   14.5529 C   0  0  0  0  0  0  0  0  0  0  0  0
   14.9842   -2.0390   15.6950 C   0  0  0  0  0  0  0  0  0  0  0  0
   13.9980   -2.9837   16.3935 C   0  0  0  0  0  0  0  0  0  0  0  0
   12.5549   -2.4857   16.4355 C   0  0  0  0  0  0  0  0  0  0  0  0
   11.9656   -1.9240   15.1402 C   0  0  0  0  0  0  0  0  0  0  0  0
   13.0389   -1.8314   14.0933 C   0  0  0  0  0  0  0  0  0  0  0  0
   12.7323   -1.1803   12.8725 O   0  0  0  0  0  0  0  0  0  0  0  0
   14.0072   -1.0097   12.2024 C   0  0  0  0  0  0  0  0  0  0  0  0
   15.1026   -1.3381   13.2177 C   0  0  0  0  0  0  0  0  0  0  0  0
   14.0349    3.1191   14.6789 H   0  0  0  0  0  0  0  0  0  0  0  0
   12.4151    3.0732   15.4052 H   0  0  0  0  0  0  0  0  0  0  0  0
   13.6686    4.1197   16.0877 H   0  0  0  0  0  0  0  0  0  0  0  0
   13.4267    2.1871   17.5259 H   0  0  0  0  0  0  0  0  0  0  0  0
   15.0021    2.1117   16.7577 H   0  0  0  0  0  0  0  0  0  0  0  0
   13.8467    0.0398   16.8485 H   0  0  0  0  0  0  0  0  0  0  0  0
   13.8532    0.8616   14.0510 H   0  0  0  0  0  0  0  0  0  0  0  0
   15.3421    0.6550   14.9641 H   0  0  0  0  0  0  0  0  0  0  0  0
   15.8230   -2.6411   15.3229 H   0  0  0  0  0  0  0  0  0  0  0  0
   15.4334   -1.3764   16.4447 H   0  0  0  0  0  0  0  0  0  0  0  0
   14.3471   -3.1762   17.4155 H   0  0  0  0  0  0  0  0  0  0  0  0
   14.0160   -3.9578   15.8986 H   0  0  0  0  0  0  0  0  0  0  0  0
   11.9206   -3.2967   16.8010 H   0  0  0  0  0  0  0  0  0  0  0  0
   12.5217   -1.6800   17.1633 H   0  0  0  0  0  0  0  0  0  0  0  0
   11.1586   -2.5756   14.7815 H   0  0  0  0  0  0  0  0  0  0  0  0
   11.4847   -0.9544   15.3115 H   0  0  0  0  0  0  0  0  0  0  0  0
   13.1886   -2.8599   13.7841 H   0  0  0  0  0  0  0  0  0  0  0  0
   14.0584   -1.6813   11.3410 H   0  0  0  0  0  0  0  0  0  0  0  0
   14.0692    0.0241   11.8501 H   0  0  0  0  0  0  0  0  0  0  0  0
   15.9723   -0.6811   13.1176 H   0  0  0  0  0  0  0  0  0  0  0  0
   15.4543   -2.3638   13.0489 H   0  0  0  0  0  0  0  0  0  0  0  0
  1  2  1  0
  2  3  1  0
  3  4  1  0
  4  5  1  0
  5  6  1  0
  6  7  1  0
  7  8  1  0
  8  9  1  0
  9 10  1  0
 10 11  1  0
 11 12  1  0
 12 13  1  0
 10  5  1  0
 13  5  1  0
  1 14  1  0
  1 15  1  0
  1 16  1  0
  2 17  1  0
  2 18  1  0
  3 19  1  0
  4 20  1  0
  4 21  1  0
  6 22  1  0
  6 23  1  0
  7 24  1  0
  7 25  1  0
  8 26  1  0
  8 27  1  0
  9 28  1  0
  9 29  1  0
 10 30  1  0
 12 31  1  0
 12 32  1  0
 13 33  1  0
 13 34  1  0
M  END
>  <Energy>  (464) 
39.362675001264186

>  <compound_id>  (464) 
84590

>  <target_id>  (464) 
1

>  <reference_id>  (464) 
98

>  <inspiration_ids>  (464) 
[93, 98]

>  <energy_score>  (464) 
-32.58455524695947

>  <distance_score>  (464) 
1.255053940557823

>  <path>  (464) 
/opt/xchem-fragalysis-2/maxwin/BulkDock/SCRATCH/511020/C84590-P98/C84590-P98.minimised.mol

>  <scratch_subdir>  (464) 
/opt/xchem-fragalysis-2/maxwin/BulkDock/SCRATCH/511020/C84590-P98

>  <fragmenstein_runtime>  (464) 
1.3662259578704834

>  <fragmenstein_outcome>  (464) 
too moved

>  <fragmenstein_mode>  (464) 
expansion

>  <fragmenstein_error>  (464) 


$$$$
C84592-P93
     RDKit          3D

 25 25  0  0  0  0  0  0  0  0999 V2000
   16.6908   -1.6894   17.4513 C   0  0  0  0  0  0  0  0  0  0  0  0
   15.6711   -2.6202   18.0845 C   0  0  0  0  0  0  0  0  0  0  0  0
   14.6622   -3.2051   17.1760 N   0  0  0  0  0  0  0  0  0  0  0  0
   13.8330   -4.1156   17.9794 C   0  0  0  0  0  0  0  0  0  0  0  0
   13.8519   -2.1742   16.4827 C   0  0  0  0  0  0  0  0  0  0  0  0
   14.5569   -1.6070   15.2384 C   0  0  0  0  0  0  0  0  0  0  0  0
   13.4491   -0.9835   14.4084 C   0  0  0  0  0  0  0  0  0  0  0  0
   12.3184   -1.9851   14.4781 C   0  0  0  0  0  0  0  0  0  0  0  0
   12.5476   -2.6418   15.8146 C   0  0  0  0  0  0  0  0  0  0  0  0
   11.6992   -3.3807   16.2963 O   0  0  0  0  0  0  0  0  0  0  0  0
   17.0894   -2.0962   16.5168 H   0  0  0  0  0  0  0  0  0  0  0  0
   16.2762   -0.6926   17.2818 H   0  0  0  0  0  0  0  0  0  0  0  0
   17.5383   -1.5577   18.1338 H   0  0  0  0  0  0  0  0  0  0  0  0
   16.2455   -3.4431   18.5302 H   0  0  0  0  0  0  0  0  0  0  0  0
   15.1824   -2.0925   18.9145 H   0  0  0  0  0  0  0  0  0  0  0  0
   13.2717   -4.7978   17.3376 H   0  0  0  0  0  0  0  0  0  0  0  0
   14.4556   -4.7403   18.6279 H   0  0  0  0  0  0  0  0  0  0  0  0
   13.1422   -3.5734   18.6316 H   0  0  0  0  0  0  0  0  0  0  0  0
   13.5700   -1.3621   17.1657 H   0  0  0  0  0  0  0  0  0  0  0  0
   15.3049   -0.8453   15.4578 H   0  0  0  0  0  0  0  0  0  0  0  0
   15.0471   -2.4045   14.6655 H   0  0  0  0  0  0  0  0  0  0  0  0
   13.1384   -0.0298   14.8526 H   0  0  0  0  0  0  0  0  0  0  0  0
   13.7606   -0.7869   13.3782 H   0  0  0  0  0  0  0  0  0  0  0  0
   12.3812   -2.7319   13.6841 H   0  0  0  0  0  0  0  0  0  0  0  0
   11.3483   -1.4848   14.4602 H   0  0  0  0  0  0  0  0  0  0  0  0
  1  2  1  0
  2  3  1  0
  3  4  1  0
  3  5  1  0
  5  6  1  0
  6  7  1  0
  7  8  1  0
  8  9  1  0
  9 10  2  0
  9  5  1  0
  1 11  1  0
  1 12  1  0
  1 13  1  0
  2 14  1  0
  2 15  1  0
  4 16  1  0
  4 17  1  0
  4 18  1  0
  5 19  1  0
  6 20  1  0
  6 21  1  0
  7 22  1  0
  7 23  1  0
  8 24  1  0
  8 25  1  0
M  END
>  <Energy>  (465) 
44.250644374050594

>  <compound_id>  (465) 
84592

>  <target_id>  (465) 
1

>  <reference_id>  (465) 
93

>  <inspiration_ids>  (465) 
[93, 98]

>  <energy_score>  (465) 
-34.60462570105257

>  <distance_score>  (465) 
1.0980054364228111

>  <path>  (465) 
/opt/xchem-fragalysis-2/maxwin/BulkDock/SCRATCH/511020/C84592-P93/C84592-P93.minimised.mol

>  <scratch_subdir>  (465) 
/opt/xchem-fragalysis-2/maxwin/BulkDock/SCRATCH/511020/C84592-P93

>  <fragmenstein_runtime>  (465) 
21.49459481239319

>  <fragmenstein_outcome>  (465) 
too moved

>  <fragmenstein_mode>  (465) 
expansion

>  <fragmenstein_error>  (465) 


$$$$
C84592-P98
     RDKit          3D

 25 25  0  0  0  0  0  0  0  0999 V2000
   15.9833   -1.2559   18.2914 C   0  0  0  0  0  0  0  0  0  0  0  0
   15.7914   -2.7049   17.8682 C   0  0  0  0  0  0  0  0  0  0  0  0
   14.4121   -3.0259   17.4688 N   0  0  0  0  0  0  0  0  0  0  0  0
   14.3032   -4.4546   17.1918 C   0  0  0  0  0  0  0  0  0  0  0  0
   13.8943   -2.1392   16.4130 C   0  0  0  0  0  0  0  0  0  0  0  0
   14.7798   -1.8951   15.1873 C   0  0  0  0  0  0  0  0  0  0  0  0
   13.8365   -1.2461   14.1831 C   0  0  0  0  0  0  0  0  0  0  0  0
   12.5234   -2.0014   14.3166 C   0  0  0  0  0  0  0  0  0  0  0  0
   12.5853   -2.5320   15.7283 C   0  0  0  0  0  0  0  0  0  0  0  0
   11.6435   -3.1386   16.2169 O   0  0  0  0  0  0  0  0  0  0  0  0
   15.8692   -0.5454   17.4697 H   0  0  0  0  0  0  0  0  0  0  0  0
   15.2743   -0.9825   19.0806 H   0  0  0  0  0  0  0  0  0  0  0  0
   16.9926   -1.1208   18.6953 H   0  0  0  0  0  0  0  0  0  0  0  0
   16.5026   -2.9460   17.0682 H   0  0  0  0  0  0  0  0  0  0  0  0
   16.0644   -3.3290   18.7289 H   0  0  0  0  0  0  0  0  0  0  0  0
   13.2690   -4.7665   17.0301 H   0  0  0  0  0  0  0  0  0  0  0  0
   14.9007   -4.7489   16.3234 H   0  0  0  0  0  0  0  0  0  0  0  0
   14.6526   -5.0296   18.0571 H   0  0  0  0  0  0  0  0  0  0  0  0
   13.6699   -1.1689   16.8780 H   0  0  0  0  0  0  0  0  0  0  0  0
   15.6309   -1.2398   15.3904 H   0  0  0  0  0  0  0  0  0  0  0  0
   15.1795   -2.8309   14.7856 H   0  0  0  0  0  0  0  0  0  0  0  0
   13.6871   -0.1901   14.4405 H   0  0  0  0  0  0  0  0  0  0  0  0
   14.2283   -1.2854   13.1622 H   0  0  0  0  0  0  0  0  0  0  0  0
   12.4594   -2.8340   13.6131 H   0  0  0  0  0  0  0  0  0  0  0  0
   11.6679   -1.3337   14.1926 H   0  0  0  0  0  0  0  0  0  0  0  0
  1  2  1  0
  2  3  1  0
  3  4  1  0
  3  5  1  0
  5  6  1  0
  6  7  1  0
  7  8  1  0
  8  9  1  0
  9 10  2  0
  9  5  1  0
  1 11  1  0
  1 12  1  0
  1 13  1  0
  2 14  1  0
  2 15  1  0
  4 16  1  0
  4 17  1  0
  4 18  1  0
  5 19  1  0
  6 20  1  0
  6 21  1  0
  7 22  1  0
  7 23  1  0
  8 24  1  0
  8 25  1  0
M  END
>  <Energy>  (466) 
44.299174331171145

>  <compound_id>  (466) 
84592

>  <target_id>  (466) 
1

>  <reference_id>  (466) 
98

>  <inspiration_ids>  (466) 
[93, 98]

>  <energy_score>  (466) 
-34.55609574393134

>  <distance_score>  (466) 
1.1827734115994695

>  <path>  (466) 
/opt/xchem-fragalysis-2/maxwin/BulkDock/SCRATCH/511020/C84592-P98/C84592-P98.minimised.mol

>  <scratch_subdir>  (466) 
/opt/xchem-fragalysis-2/maxwin/BulkDock/SCRATCH/511020/C84592-P98

>  <fragmenstein_runtime>  (466) 
22.543241024017334

>  <fragmenstein_outcome>  (466) 
too moved

>  <fragmenstein_mode>  (466) 
expansion

>  <fragmenstein_error>  (466) 


$$$$
C84593-P93
     RDKit          3D

 31 31  0  0  0  0  0  0  0  0999 V2000
   13.9563    2.0145   15.9662 C   0  0  0  0  0  0  0  0  0  0  0  0
   13.1434    0.9900   15.1851 C   0  0  0  0  0  0  0  0  0  0  0  0
   14.0290    0.1439   14.3815 N   0  0  0  0  0  0  0  0  0  0  0  0
   13.6829    0.2132   12.9629 C   0  0  0  0  0  0  0  0  0  0  0  0
   14.2088   -1.2544   14.8565 C   0  0  0  0  0  0  0  0  0  0  0  0
   14.9131   -1.2582   16.2232 C   0  0  0  0  0  0  0  0  0  0  0  0
   15.3194   -2.6456   16.7093 C   0  0  0  0  0  0  0  0  0  0  0  0
   14.2198   -3.3477   17.4992 C   0  0  0  0  0  0  0  0  0  0  0  0
   12.9871   -3.7235   16.6877 C   0  0  0  0  0  0  0  0  0  0  0  0
   12.2644   -2.5451   16.0574 C   0  0  0  0  0  0  0  0  0  0  0  0
   12.9179   -2.0900   14.7790 C   0  0  0  0  0  0  0  0  0  0  0  0
   12.4155   -2.4141   13.6990 O   0  0  0  0  0  0  0  0  0  0  0  0
   13.2865    2.6597   16.5444 H   0  0  0  0  0  0  0  0  0  0  0  0
   14.5352    2.6538   15.2910 H   0  0  0  0  0  0  0  0  0  0  0  0
   14.6502    1.5436   16.6680 H   0  0  0  0  0  0  0  0  0  0  0  0
   12.5236    0.4106   15.8763 H   0  0  0  0  0  0  0  0  0  0  0  0
   12.4352    1.5431   14.5541 H   0  0  0  0  0  0  0  0  0  0  0  0
   14.3238   -0.4376   12.3582 H   0  0  0  0  0  0  0  0  0  0  0  0
   13.8374    1.2324   12.5904 H   0  0  0  0  0  0  0  0  0  0  0  0
   12.6373   -0.0499   12.7850 H   0  0  0  0  0  0  0  0  0  0  0  0
   14.9079   -1.7494   14.1666 H   0  0  0  0  0  0  0  0  0  0  0  0
   15.8339   -0.6663   16.1270 H   0  0  0  0  0  0  0  0  0  0  0  0
   14.3114   -0.7649   16.9951 H   0  0  0  0  0  0  0  0  0  0  0  0
   16.1816   -2.5327   17.3789 H   0  0  0  0  0  0  0  0  0  0  0  0
   15.6547   -3.2733   15.8754 H   0  0  0  0  0  0  0  0  0  0  0  0
   14.6400   -4.2650   17.9288 H   0  0  0  0  0  0  0  0  0  0  0  0
   13.9268   -2.7252   18.3514 H   0  0  0  0  0  0  0  0  0  0  0  0
   13.2784   -4.4482   15.9273 H   0  0  0  0  0  0  0  0  0  0  0  0
   12.2935   -4.2446   17.3549 H   0  0  0  0  0  0  0  0  0  0  0  0
   12.1756   -1.6981   16.7391 H   0  0  0  0  0  0  0  0  0  0  0  0
   11.2436   -2.8483   15.7977 H   0  0  0  0  0  0  0  0  0  0  0  0
  1  2  1  0
  2  3  1  0
  3  4  1  0
  3  5  1  0
  5  6  1  0
  6  7  1  0
  7  8  1  0
  8  9  1  0
  9 10  1  0
 10 11  1  0
 11 12  2  0
 11  5  1  0
  1 13  1  0
  1 14  1  0
  1 15  1  0
  2 16  1  0
  2 17  1  0
  4 18  1  0
  4 19  1  0
  4 20  1  0
  5 21  1  0
  6 22  1  0
  6 23  1  0
  7 24  1  0
  7 25  1  0
  8 26  1  0
  8 27  1  0
  9 28  1  0
  9 29  1  0
 10 30  1  0
 10 31  1  0
M  END
>  <Energy>  (467) 
48.584607991382128

>  <compound_id>  (467) 
84593

>  <target_id>  (467) 
1

>  <reference_id>  (467) 
93

>  <inspiration_ids>  (467) 
[93, 98]

>  <energy_score>  (467) 
-44.29885672341456

>  <distance_score>  (467) 
1.0962525422595097

>  <path>  (467) 
/opt/xchem-fragalysis-2/maxwin/BulkDock/SCRATCH/511020/C84593-P93/C84593-P93.minimised.mol

>  <scratch_subdir>  (467) 
/opt/xchem-fragalysis-2/maxwin/BulkDock/SCRATCH/511020/C84593-P93

>  <fragmenstein_runtime>  (467) 
11.550827026367188

>  <fragmenstein_outcome>  (467) 
too moved

>  <fragmenstein_mode>  (467) 
expansion

>  <fragmenstein_error>  (467) 


$$$$
C84593-P98
     RDKit          3D

 31 31  0  0  0  0  0  0  0  0999 V2000
   13.8870    1.9811   15.8612 C   0  0  0  0  0  0  0  0  0  0  0  0
   13.0659    0.9538   15.0903 C   0  0  0  0  0  0  0  0  0  0  0  0
   13.9361    0.1006   14.2762 N   0  0  0  0  0  0  0  0  0  0  0  0
   13.5157    0.1045   12.8740 C   0  0  0  0  0  0  0  0  0  0  0  0
   14.1654   -1.2784   14.7904 C   0  0  0  0  0  0  0  0  0  0  0  0
   14.9034   -1.2287   16.1386 C   0  0  0  0  0  0  0  0  0  0  0  0
   15.3631   -2.5904   16.6494 C   0  0  0  0  0  0  0  0  0  0  0  0
   14.3061   -3.2994   17.4889 C   0  0  0  0  0  0  0  0  0  0  0  0
   13.0608   -3.7240   16.7238 C   0  0  0  0  0  0  0  0  0  0  0  0
   12.2887   -2.5878   16.0746 C   0  0  0  0  0  0  0  0  0  0  0  0
   12.8954   -2.1509   14.7679 C   0  0  0  0  0  0  0  0  0  0  0  0
   12.3748   -2.5178   13.7097 O   0  0  0  0  0  0  0  0  0  0  0  0
   13.2213    2.6341   16.4353 H   0  0  0  0  0  0  0  0  0  0  0  0
   14.4649    2.6126   15.1776 H   0  0  0  0  0  0  0  0  0  0  0  0
   14.5824    1.5175   16.5653 H   0  0  0  0  0  0  0  0  0  0  0  0
   12.4458    0.3778   15.7843 H   0  0  0  0  0  0  0  0  0  0  0  0
   12.3580    1.5121   14.4633 H   0  0  0  0  0  0  0  0  0  0  0  0
   14.1513   -0.5458   12.2630 H   0  0  0  0  0  0  0  0  0  0  0  0
   13.6166    1.1132   12.4570 H   0  0  0  0  0  0  0  0  0  0  0  0
   12.4725   -0.2020   12.7530 H   0  0  0  0  0  0  0  0  0  0  0  0
   14.8597   -1.7738   14.0960 H   0  0  0  0  0  0  0  0  0  0  0  0
   15.8036   -0.6128   16.0048 H   0  0  0  0  0  0  0  0  0  0  0  0
   14.3052   -0.7360   16.9133 H   0  0  0  0  0  0  0  0  0  0  0  0
   16.2403   -2.4356   17.2905 H   0  0  0  0  0  0  0  0  0  0  0  0
   15.6922   -3.2310   15.8230 H   0  0  0  0  0  0  0  0  0  0  0  0
   14.7604   -4.1983   17.9249 H   0  0  0  0  0  0  0  0  0  0  0  0
   14.0237   -2.6643   18.3357 H   0  0  0  0  0  0  0  0  0  0  0  0
   13.3511   -4.4666   15.9822 H   0  0  0  0  0  0  0  0  0  0  0  0
   12.4012   -4.2415   17.4255 H   0  0  0  0  0  0  0  0  0  0  0  0
   12.1916   -1.7218   16.7301 H   0  0  0  0  0  0  0  0  0  0  0  0
   11.2717   -2.9296   15.8495 H   0  0  0  0  0  0  0  0  0  0  0  0
  1  2  1  0
  2  3  1  0
  3  4  1  0
  3  5  1  0
  5  6  1  0
  6  7  1  0
  7  8  1  0
  8  9  1  0
  9 10  1  0
 10 11  1  0
 11 12  2  0
 11  5  1  0
  1 13  1  0
  1 14  1  0
  1 15  1  0
  2 16  1  0
  2 17  1  0
  4 18  1  0
  4 19  1  0
  4 20  1  0
  5 21  1  0
  6 22  1  0
  6 23  1  0
  7 24  1  0
  7 25  1  0
  8 26  1  0
  8 27  1  0
  9 28  1  0
  9 29  1  0
 10 30  1  0
 10 31  1  0
M  END
>  <Energy>  (468) 
48.756445018910924

>  <compound_id>  (468) 
84593

>  <target_id>  (468) 
1

>  <reference_id>  (468) 
98

>  <inspiration_ids>  (468) 
[93, 98]

>  <energy_score>  (468) 
-44.12701969588633

>  <distance_score>  (468) 
1.0953162642320957

>  <path>  (468) 
/opt/xchem-fragalysis-2/maxwin/BulkDock/SCRATCH/511020/C84593-P98/C84593-P98.minimised.mol

>  <scratch_subdir>  (468) 
/opt/xchem-fragalysis-2/maxwin/BulkDock/SCRATCH/511020/C84593-P98

>  <fragmenstein_runtime>  (468) 
7.400051832199097

>  <fragmenstein_outcome>  (468) 
too moved

>  <fragmenstein_mode>  (468) 
expansion

>  <fragmenstein_error>  (468) 


$$$$
C84595-P93
     RDKit          3D

 34 35  0  0  0  0  0  0  0  0999 V2000
   13.7260    2.3017   16.3805 C   0  0  0  0  0  0  0  0  0  0  0  0
   13.1668    1.1755   15.6459 N   0  0  0  0  0  0  0  0  0  0  0  0
   14.1557    0.5677   14.7388 C   0  0  0  0  0  0  0  0  0  0  0  0
   13.9741    1.1837   13.3419 C   0  0  0  0  0  0  0  0  0  0  0  0
   14.0692   -0.9960   14.8266 C   0  0  0  0  0  0  0  0  0  0  0  0
   14.4718   -1.4352   16.2644 C   0  0  0  0  0  0  0  0  0  0  0  0
   14.1912   -2.9016   16.5704 C   0  0  0  0  0  0  0  0  0  0  0  0
   12.7528   -3.3094   16.2887 C   0  0  0  0  0  0  0  0  0  0  0  0
   11.9264   -2.2759   15.5304 C   0  0  0  0  0  0  0  0  0  0  0  0
   12.6769   -1.5375   14.4255 C   0  0  0  0  0  0  0  0  0  0  0  0
   12.8680   -2.4025   13.2953 O   0  0  0  0  0  0  0  0  0  0  0  0
   14.0875   -2.0133   12.6573 C   0  0  0  0  0  0  0  0  0  0  0  0
   15.0087   -1.6376   13.7902 C   0  0  0  0  0  0  0  0  0  0  0  0
   14.0655    3.0975   15.7103 H   0  0  0  0  0  0  0  0  0  0  0  0
   12.9582    2.7216   17.0380 H   0  0  0  0  0  0  0  0  0  0  0  0
   14.5597    1.9853   17.0159 H   0  0  0  0  0  0  0  0  0  0  0  0
   12.3494    1.4872   15.1209 H   0  0  0  0  0  0  0  0  0  0  0  0
   15.1705    0.8381   15.0658 H   0  0  0  0  0  0  0  0  0  0  0  0
   14.7712    0.8729   12.6605 H   0  0  0  0  0  0  0  0  0  0  0  0
   13.0117    0.9209   12.8918 H   0  0  0  0  0  0  0  0  0  0  0  0
   14.0235    2.2779   13.3893 H   0  0  0  0  0  0  0  0  0  0  0  0
   15.5382   -1.2327   16.4274 H   0  0  0  0  0  0  0  0  0  0  0  0
   13.9338   -0.8404   17.0130 H   0  0  0  0  0  0  0  0  0  0  0  0
   14.8682   -3.5453   15.9983 H   0  0  0  0  0  0  0  0  0  0  0  0
   14.4254   -3.1016   17.6234 H   0  0  0  0  0  0  0  0  0  0  0  0
   12.7561   -4.2532   15.7450 H   0  0  0  0  0  0  0  0  0  0  0  0
   12.2573   -3.5394   17.2359 H   0  0  0  0  0  0  0  0  0  0  0  0
   11.5694   -1.5265   16.2448 H   0  0  0  0  0  0  0  0  0  0  0  0
   11.0402   -2.7715   15.1166 H   0  0  0  0  0  0  0  0  0  0  0  0
   12.0214   -0.7355   14.0687 H   0  0  0  0  0  0  0  0  0  0  0  0
   14.4764   -2.8330   12.0481 H   0  0  0  0  0  0  0  0  0  0  0  0
   13.8871   -1.1728   11.9886 H   0  0  0  0  0  0  0  0  0  0  0  0
   15.8318   -0.9941   13.4653 H   0  0  0  0  0  0  0  0  0  0  0  0
   15.4730   -2.5487   14.1797 H   0  0  0  0  0  0  0  0  0  0  0  0
  1  2  1  0
  2  3  1  0
  3  4  1  0
  3  5  1  0
  5  6  1  0
  6  7  1  0
  7  8  1  0
  8  9  1  0
  9 10  1  0
 10 11  1  0
 11 12  1  0
 12 13  1  0
 10  5  1  0
 13  5  1  0
  1 14  1  0
  1 15  1  0
  1 16  1  0
  2 17  1  0
  3 18  1  0
  4 19  1  0
  4 20  1  0
  4 21  1  0
  6 22  1  0
  6 23  1  0
  7 24  1  0
  7 25  1  0
  8 26  1  0
  8 27  1  0
  9 28  1  0
  9 29  1  0
 10 30  1  0
 12 31  1  0
 12 32  1  0
 13 33  1  0
 13 34  1  0
M  END
>  <Energy>  (469) 
36.782296601861376

>  <compound_id>  (469) 
84595

>  <target_id>  (469) 
1

>  <reference_id>  (469) 
93

>  <inspiration_ids>  (469) 
[93, 98]

>  <energy_score>  (469) 
-77.8221845804196

>  <distance_score>  (469) 
1.0174325363444496

>  <path>  (469) 
/opt/xchem-fragalysis-2/maxwin/BulkDock/SCRATCH/511020/C84595-P93/C84595-P93.minimised.mol

>  <scratch_subdir>  (469) 
/opt/xchem-fragalysis-2/maxwin/BulkDock/SCRATCH/511020/C84595-P93

>  <fragmenstein_runtime>  (469) 
1.356670618057251

>  <fragmenstein_outcome>  (469) 
too moved

>  <fragmenstein_mode>  (469) 
expansion

>  <fragmenstein_error>  (469) 


$$$$
C84595-P98
     RDKit          3D

 34 35  0  0  0  0  0  0  0  0999 V2000
   13.6505    2.0985   16.6257 C   0  0  0  0  0  0  0  0  0  0  0  0
   13.0830    0.9827   15.8790 N   0  0  0  0  0  0  0  0  0  0  0  0
   13.7257    0.8310   14.5679 C   0  0  0  0  0  0  0  0  0  0  0  0
   12.8975    1.6371   13.5471 C   0  0  0  0  0  0  0  0  0  0  0  0
   13.9635   -0.6758   14.2368 C   0  0  0  0  0  0  0  0  0  0  0  0
   14.8868   -1.3293   15.3285 C   0  0  0  0  0  0  0  0  0  0  0  0
   14.3197   -2.5330   16.0766 C   0  0  0  0  0  0  0  0  0  0  0  0
   12.8445   -2.3907   16.3655 C   0  0  0  0  0  0  0  0  0  0  0  0
   11.9892   -2.1813   15.1252 C   0  0  0  0  0  0  0  0  0  0  0  0
   12.6990   -1.5035   13.9538 C   0  0  0  0  0  0  0  0  0  0  0  0
   13.0963   -2.5241   13.0112 O   0  0  0  0  0  0  0  0  0  0  0  0
   14.3577   -2.1778   12.4264 C   0  0  0  0  0  0  0  0  0  0  0  0
   14.6632   -0.7758   12.8693 C   0  0  0  0  0  0  0  0  0  0  0  0
   13.5253    3.0502   16.1003 H   0  0  0  0  0  0  0  0  0  0  0  0
   13.1453    2.1845   17.5924 H   0  0  0  0  0  0  0  0  0  0  0  0
   14.7141    1.9385   16.8307 H   0  0  0  0  0  0  0  0  0  0  0  0
   12.0799    1.1252   15.7631 H   0  0  0  0  0  0  0  0  0  0  0  0
   14.7223    1.2963   14.5921 H   0  0  0  0  0  0  0  0  0  0  0  0
   13.3863    1.6954   12.5717 H   0  0  0  0  0  0  0  0  0  0  0  0
   11.8924    1.2283   13.4067 H   0  0  0  0  0  0  0  0  0  0  0  0
   12.7762    2.6753   13.8787 H   0  0  0  0  0  0  0  0  0  0  0  0
   15.8493   -1.6299   14.8944 H   0  0  0  0  0  0  0  0  0  0  0  0
   15.1638   -0.5779   16.0788 H   0  0  0  0  0  0  0  0  0  0  0  0
   14.5064   -3.4453   15.5123 H   0  0  0  0  0  0  0  0  0  0  0  0
   14.8668   -2.6555   17.0195 H   0  0  0  0  0  0  0  0  0  0  0  0
   12.4842   -3.2629   16.9218 H   0  0  0  0  0  0  0  0  0  0  0  0
   12.7157   -1.5249   17.0198 H   0  0  0  0  0  0  0  0  0  0  0  0
   11.1226   -1.5753   15.4185 H   0  0  0  0  0  0  0  0  0  0  0  0
   11.5871   -3.1499   14.8028 H   0  0  0  0  0  0  0  0  0  0  0  0
   11.9561   -0.9146   13.4077 H   0  0  0  0  0  0  0  0  0  0  0  0
   15.1277   -2.8635   12.7856 H   0  0  0  0  0  0  0  0  0  0  0  0
   14.3019   -2.2726   11.3389 H   0  0  0  0  0  0  0  0  0  0  0  0
   14.2245   -0.1041   12.1271 H   0  0  0  0  0  0  0  0  0  0  0  0
   15.7367   -0.5631   12.8952 H   0  0  0  0  0  0  0  0  0  0  0  0
  1  2  1  0
  2  3  1  0
  3  4  1  0
  3  5  1  0
  5  6  1  0
  6  7  1  0
  7  8  1  0
  8  9  1  0
  9 10  1  0
 10 11  1  0
 11 12  1  0
 12 13  1  0
 10  5  1  0
 13  5  1  0
  1 14  1  0
  1 15  1  0
  1 16  1  0
  2 17  1  0
  3 18  1  0
  4 19  1  0
  4 20  1  0
  4 21  1  0
  6 22  1  0
  6 23  1  0
  7 24  1  0
  7 25  1  0
  8 26  1  0
  8 27  1  0
  9 28  1  0
  9 29  1  0
 10 30  1  0
 12 31  1  0
 12 32  1  0
 13 33  1  0
 13 34  1  0
M  END
>  <Energy>  (470) 
40.268726264104558

>  <compound_id>  (470) 
84595

>  <target_id>  (470) 
1

>  <reference_id>  (470) 
98

>  <inspiration_ids>  (470) 
[93, 98]

>  <energy_score>  (470) 
-74.33575491817788

>  <distance_score>  (470) 
1.4123189398503966

>  <path>  (470) 
/opt/xchem-fragalysis-2/maxwin/BulkDock/SCRATCH/511020/C84595-P98/C84595-P98.minimised.mol

>  <scratch_subdir>  (470) 
/opt/xchem-fragalysis-2/maxwin/BulkDock/SCRATCH/511020/C84595-P98

>  <fragmenstein_runtime>  (470) 
1.747035264968872

>  <fragmenstein_outcome>  (470) 
too moved

>  <fragmenstein_mode>  (470) 
expansion

>  <fragmenstein_error>  (470) 


$$$$
C84596-P93
     RDKit          3D

 20 20  0  0  0  0  0  0  0  0999 V2000
   12.0288   -2.6068   13.5207 C   0  0  0  0  0  0  0  0  0  0  0  0
   11.8267   -2.5905   14.9546 N   0  0  0  0  0  0  0  0  0  0  0  0
   12.5774   -1.4885   15.5306 C   0  0  0  0  0  0  0  0  0  0  0  0
   14.0691   -1.7884   15.6193 C   0  0  0  0  0  0  0  0  0  0  0  0
   14.3224   -2.5273   16.8810 C   0  0  0  0  0  0  0  0  0  0  0  0
   13.9920   -3.7579   17.0707 N   0  0  0  0  0  0  0  0  0  0  0  0
   14.1996   -4.1377   18.3750 C   0  0  0  0  0  0  0  0  0  0  0  0
   13.9750   -5.2608   18.8073 O   0  0  0  0  0  0  0  0  0  0  0  0
   14.7328   -3.0642   19.2782 C   0  0  0  0  0  0  0  0  0  0  0  0
   15.0140   -1.6495   18.2071 S   0  0  0  0  0  0  0  0  0  0  0  0
   11.6967   -1.6594   13.1028 H   0  0  0  0  0  0  0  0  0  0  0  0
   13.0703   -2.7019   13.2145 H   0  0  0  0  0  0  0  0  0  0  0  0
   11.4729   -3.4377   13.0891 H   0  0  0  0  0  0  0  0  0  0  0  0
   12.1201   -3.4860   15.3556 H   0  0  0  0  0  0  0  0  0  0  0  0
   12.4170   -0.5697   14.9522 H   0  0  0  0  0  0  0  0  0  0  0  0
   12.1691   -1.2796   16.5251 H   0  0  0  0  0  0  0  0  0  0  0  0
   14.4593   -2.3706   14.7813 H   0  0  0  0  0  0  0  0  0  0  0  0
   14.6238   -0.8426   15.6212 H   0  0  0  0  0  0  0  0  0  0  0  0
   15.6748   -3.3915   19.7248 H   0  0  0  0  0  0  0  0  0  0  0  0
   14.0022   -2.8320   20.0553 H   0  0  0  0  0  0  0  0  0  0  0  0
  1  2  1  0
  2  3  1  0
  3  4  1  0
  4  5  1  0
  5  6  2  0
  6  7  1  0
  7  8  2  0
  7  9  1  0
  9 10  1  0
 10  5  1  0
  1 11  1  0
  1 12  1  0
  1 13  1  0
  2 14  1  0
  3 15  1  0
  3 16  1  0
  4 17  1  0
  4 18  1  0
  9 19  1  0
  9 20  1  0
M  END
>  <Energy>  (471) 
11.027085915864244

>  <compound_id>  (471) 
84596

>  <target_id>  (471) 
1

>  <reference_id>  (471) 
93

>  <inspiration_ids>  (471) 
[93, 98]

>  <energy_score>  (471) 
-21.92467359134079

>  <distance_score>  (471) 
1.7041184429929066

>  <path>  (471) 
/opt/xchem-fragalysis-2/maxwin/BulkDock/SCRATCH/511020/C84596-P93/C84596-P93.minimised.mol

>  <scratch_subdir>  (471) 
/opt/xchem-fragalysis-2/maxwin/BulkDock/SCRATCH/511020/C84596-P93

>  <fragmenstein_runtime>  (471) 
1.198772668838501

>  <fragmenstein_outcome>  (471) 
too moved

>  <fragmenstein_mode>  (471) 
expansion

>  <fragmenstein_error>  (471) 


$$$$
C84596-P98
     RDKit          3D

 20 20  0  0  0  0  0  0  0  0999 V2000
   12.0404   -2.6858   13.3387 C   0  0  0  0  0  0  0  0  0  0  0  0
   11.7707   -2.6265   14.7627 N   0  0  0  0  0  0  0  0  0  0  0  0
   12.4317   -1.4765   15.3558 C   0  0  0  0  0  0  0  0  0  0  0  0
   13.9421   -1.6434   15.4801 C   0  0  0  0  0  0  0  0  0  0  0  0
   14.2516   -2.5389   16.6253 C   0  0  0  0  0  0  0  0  0  0  0  0
   14.0777   -3.8155   16.6055 N   0  0  0  0  0  0  0  0  0  0  0  0
   14.3392   -4.3727   17.8335 C   0  0  0  0  0  0  0  0  0  0  0  0
   14.4100   -5.5763   18.0352 O   0  0  0  0  0  0  0  0  0  0  0  0
   14.5105   -3.3827   18.9509 C   0  0  0  0  0  0  0  0  0  0  0  0
   14.8028   -1.8183   18.1055 S   0  0  0  0  0  0  0  0  0  0  0  0
   11.7185   -1.7674   12.8489 H   0  0  0  0  0  0  0  0  0  0  0  0
   13.0965   -2.7970   13.0935 H   0  0  0  0  0  0  0  0  0  0  0  0
   11.5114   -3.5395   12.9170 H   0  0  0  0  0  0  0  0  0  0  0  0
   12.0862   -3.4965   15.2007 H   0  0  0  0  0  0  0  0  0  0  0  0
   12.2067   -0.5715   14.7776 H   0  0  0  0  0  0  0  0  0  0  0  0
   11.9948   -1.3087   16.3459 H   0  0  0  0  0  0  0  0  0  0  0  0
   14.4110   -2.0427   14.5769 H   0  0  0  0  0  0  0  0  0  0  0  0
   14.3936   -0.6582   15.6477 H   0  0  0  0  0  0  0  0  0  0  0  0
   13.6024   -3.3487   19.5558 H   0  0  0  0  0  0  0  0  0  0  0  0
   15.3744   -3.6492   19.5638 H   0  0  0  0  0  0  0  0  0  0  0  0
  1  2  1  0
  2  3  1  0
  3  4  1  0
  4  5  1  0
  5  6  2  0
  6  7  1  0
  7  8  2  0
  7  9  1  0
  9 10  1  0
 10  5  1  0
  1 11  1  0
  1 12  1  0
  1 13  1  0
  2 14  1  0
  3 15  1  0
  3 16  1  0
  4 17  1  0
  4 18  1  0
  9 19  1  0
  9 20  1  0
M  END
>  <Energy>  (472) 
10.022639281086292

>  <compound_id>  (472) 
84596

>  <target_id>  (472) 
1

>  <reference_id>  (472) 
98

>  <inspiration_ids>  (472) 
[93, 98]

>  <energy_score>  (472) 
-22.929120226119636

>  <distance_score>  (472) 
1.4968098102299245

>  <path>  (472) 
/opt/xchem-fragalysis-2/maxwin/BulkDock/SCRATCH/511020/C84596-P98/C84596-P98.minimised.mol

>  <scratch_subdir>  (472) 
/opt/xchem-fragalysis-2/maxwin/BulkDock/SCRATCH/511020/C84596-P98

>  <fragmenstein_runtime>  (472) 
1.3126816749572754

>  <fragmenstein_outcome>  (472) 
too moved

>  <fragmenstein_mode>  (472) 
expansion

>  <fragmenstein_error>  (472) 


$$$$
C84597-P93
     RDKit          3D

 23 23  0  0  0  0  0  0  0  0999 V2000
   17.4166   -3.9574   16.0554 C   0  0  0  0  0  0  0  0  0  0  0  0
   17.1451   -2.5368   16.5453 C   0  0  0  0  0  0  0  0  0  0  0  0
   15.7617   -2.1027   16.2461 N   0  0  0  0  0  0  0  0  0  0  0  0
   15.6177   -1.4214   14.9543 C   0  0  0  0  0  0  0  0  0  0  0  0
   14.6930   -2.7451   16.8514 C   0  0  0  0  0  0  0  0  0  0  0  0
   14.7648   -3.4046   18.0105 C   0  0  0  0  0  0  0  0  0  0  0  0
   13.6051   -4.2746   18.0440 C   0  0  0  0  0  0  0  0  0  0  0  0
   13.5038   -5.1397   18.8997 O   0  0  0  0  0  0  0  0  0  0  0  0
   12.7526   -4.1157   16.8303 C   0  0  0  0  0  0  0  0  0  0  0  0
   13.3398   -2.8664   16.1996 C   0  0  0  0  0  0  0  0  0  0  0  0
   18.4628   -4.2220   16.2388 H   0  0  0  0  0  0  0  0  0  0  0  0
   17.2289   -4.0427   14.9801 H   0  0  0  0  0  0  0  0  0  0  0  0
   16.7930   -4.6985   16.5631 H   0  0  0  0  0  0  0  0  0  0  0  0
   17.8632   -1.8546   16.0740 H   0  0  0  0  0  0  0  0  0  0  0  0
   17.3403   -2.4664   17.6219 H   0  0  0  0  0  0  0  0  0  0  0  0
   16.4473   -0.7279   14.7803 H   0  0  0  0  0  0  0  0  0  0  0  0
   14.6983   -0.8266   14.9258 H   0  0  0  0  0  0  0  0  0  0  0  0
   15.5953   -2.1489   14.1363 H   0  0  0  0  0  0  0  0  0  0  0  0
   15.5886   -3.5120   18.6920 H   0  0  0  0  0  0  0  0  0  0  0  0
   11.6979   -4.0107   17.0528 H   0  0  0  0  0  0  0  0  0  0  0  0
   12.9091   -4.9930   16.2044 H   0  0  0  0  0  0  0  0  0  0  0  0
   12.7354   -1.9829   16.4370 H   0  0  0  0  0  0  0  0  0  0  0  0
   13.3786   -2.9606   15.1143 H   0  0  0  0  0  0  0  0  0  0  0  0
  1  2  1  0
  2  3  1  0
  3  4  1  0
  3  5  1  0
  5  6  2  0
  6  7  1  0
  7  8  2  0
  7  9  1  0
  9 10  1  0
 10  5  1  0
  1 11  1  0
  1 12  1  0
  1 13  1  0
  2 14  1  0
  2 15  1  0
  4 16  1  0
  4 17  1  0
  4 18  1  0
  6 19  1  0
  9 20  1  0
  9 21  1  0
 10 22  1  0
 10 23  1  0
M  END
>  <Energy>  (473) 
15.357814402127696

>  <compound_id>  (473) 
84597

>  <target_id>  (473) 
1

>  <reference_id>  (473) 
93

>  <inspiration_ids>  (473) 
[93, 98]

>  <energy_score>  (473) 
-20.27007529517389

>  <distance_score>  (473) 
1.5516642250809396

>  <path>  (473) 
/opt/xchem-fragalysis-2/maxwin/BulkDock/SCRATCH/511020/C84597-P93/C84597-P93.minimised.mol

>  <scratch_subdir>  (473) 
/opt/xchem-fragalysis-2/maxwin/BulkDock/SCRATCH/511020/C84597-P93

>  <fragmenstein_runtime>  (473) 
0.8694455623626709

>  <fragmenstein_outcome>  (473) 
too moved

>  <fragmenstein_mode>  (473) 
expansion

>  <fragmenstein_error>  (473) 


$$$$
C84597-P98
     RDKit          3D

 23 23  0  0  0  0  0  0  0  0999 V2000
   17.4591   -3.9642   16.0519 C   0  0  0  0  0  0  0  0  0  0  0  0
   17.2159   -2.5571   16.5933 C   0  0  0  0  0  0  0  0  0  0  0  0
   15.8388   -2.0892   16.3187 N   0  0  0  0  0  0  0  0  0  0  0  0
   15.6996   -1.3537   15.0570 C   0  0  0  0  0  0  0  0  0  0  0  0
   14.7653   -2.7424   16.9029 C   0  0  0  0  0  0  0  0  0  0  0  0
   14.8295   -3.4382   18.0420 C   0  0  0  0  0  0  0  0  0  0  0  0
   13.6639   -4.3019   18.0462 C   0  0  0  0  0  0  0  0  0  0  0  0
   13.5396   -5.1840   18.8783 O   0  0  0  0  0  0  0  0  0  0  0  0
   12.8299   -4.1055   16.8279 C   0  0  0  0  0  0  0  0  0  0  0  0
   13.4164   -2.8374   16.2402 C   0  0  0  0  0  0  0  0  0  0  0  0
   17.2632   -4.0080   14.9755 H   0  0  0  0  0  0  0  0  0  0  0  0
   16.8261   -4.7124   16.5372 H   0  0  0  0  0  0  0  0  0  0  0  0
   18.5018   -4.2530   16.2185 H   0  0  0  0  0  0  0  0  0  0  0  0
   17.9430   -1.8714   16.1414 H   0  0  0  0  0  0  0  0  0  0  0  0
   17.4187   -2.5282   17.6703 H   0  0  0  0  0  0  0  0  0  0  0  0
   16.5359   -0.6617   14.9106 H   0  0  0  0  0  0  0  0  0  0  0  0
   14.7860   -0.7494   15.0549 H   0  0  0  0  0  0  0  0  0  0  0  0
   15.6689   -2.0462   14.2093 H   0  0  0  0  0  0  0  0  0  0  0  0
   15.6496   -3.5706   18.7235 H   0  0  0  0  0  0  0  0  0  0  0  0
   11.7690   -4.0191   17.0244 H   0  0  0  0  0  0  0  0  0  0  0  0
   13.0176   -4.9651   16.1911 H   0  0  0  0  0  0  0  0  0  0  0  0
   12.8124   -1.9614   16.5041 H   0  0  0  0  0  0  0  0  0  0  0  0
   13.4604   -2.8969   15.1520 H   0  0  0  0  0  0  0  0  0  0  0  0
  1  2  1  0
  2  3  1  0
  3  4  1  0
  3  5  1  0
  5  6  2  0
  6  7  1  0
  7  8  2  0
  7  9  1  0
  9 10  1  0
 10  5  1  0
  1 11  1  0
  1 12  1  0
  1 13  1  0
  2 14  1  0
  2 15  1  0
  4 16  1  0
  4 17  1  0
  4 18  1  0
  6 19  1  0
  9 20  1  0
  9 21  1  0
 10 22  1  0
 10 23  1  0
M  END
>  <Energy>  (474) 
15.548493511938016

>  <compound_id>  (474) 
84597

>  <target_id>  (474) 
1

>  <reference_id>  (474) 
98

>  <inspiration_ids>  (474) 
[93, 98]

>  <energy_score>  (474) 
-20.079396185362988

>  <distance_score>  (474) 
1.56991859998398

>  <path>  (474) 
/opt/xchem-fragalysis-2/maxwin/BulkDock/SCRATCH/511020/C84597-P98/C84597-P98.minimised.mol

>  <scratch_subdir>  (474) 
/opt/xchem-fragalysis-2/maxwin/BulkDock/SCRATCH/511020/C84597-P98

>  <fragmenstein_runtime>  (474) 
0.8530552387237549

>  <fragmenstein_outcome>  (474) 
too moved

>  <fragmenstein_mode>  (474) 
expansion

>  <fragmenstein_error>  (474) 


$$$$
C84599-P93
     RDKit          3D

 25 26  0  0  0  0  0  0  0  0999 V2000
   13.3441    1.3731   15.6314 C   0  0  0  0  0  0  0  0  0  0  0  0
   14.0070    0.0904   15.7510 N   0  0  0  0  0  0  0  0  0  0  0  0
   13.1087   -1.0730   15.8866 C   0  0  0  0  0  0  0  0  0  0  0  0
   12.3472   -1.3734   14.5943 C   0  0  0  0  0  0  0  0  0  0  0  0
   13.9228   -2.3008   16.3041 C   0  0  0  0  0  0  0  0  0  0  0  0
   13.2662   -3.6537   16.7996 C   0  0  0  0  0  0  0  0  0  0  0  0
   14.7481   -3.8507   17.2840 C   0  0  0  0  0  0  0  0  0  0  0  0
   15.6213   -3.7425   16.0319 C   0  0  0  0  0  0  0  0  0  0  0  0
   14.9639   -2.6645   15.3475 O   0  0  0  0  0  0  0  0  0  0  0  0
   14.6168   -2.3725   17.7362 C   0  0  0  0  0  0  0  0  0  0  0  0
   12.6780    1.5572   16.4798 H   0  0  0  0  0  0  0  0  0  0  0  0
   12.7707    1.4534   14.7034 H   0  0  0  0  0  0  0  0  0  0  0  0
   14.0935    2.1707   15.6262 H   0  0  0  0  0  0  0  0  0  0  0  0
   14.6310   -0.0743   14.9581 H   0  0  0  0  0  0  0  0  0  0  0  0
   12.3808   -0.8644   16.6779 H   0  0  0  0  0  0  0  0  0  0  0  0
   13.0290   -1.5494   13.7547 H   0  0  0  0  0  0  0  0  0  0  0  0
   11.6774   -0.5519   14.3218 H   0  0  0  0  0  0  0  0  0  0  0  0
   11.7322   -2.2730   14.7085 H   0  0  0  0  0  0  0  0  0  0  0  0
   12.5090   -3.5827   17.5827 H   0  0  0  0  0  0  0  0  0  0  0  0
   12.9175   -4.3368   16.0258 H   0  0  0  0  0  0  0  0  0  0  0  0
   14.9759   -4.5899   18.0473 H   0  0  0  0  0  0  0  0  0  0  0  0
   16.6533   -3.4608   16.2614 H   0  0  0  0  0  0  0  0  0  0  0  0
   15.6069   -4.6521   15.4321 H   0  0  0  0  0  0  0  0  0  0  0  0
   14.0098   -2.2026   18.6242 H   0  0  0  0  0  0  0  0  0  0  0  0
   15.5523   -1.8142   17.8433 H   0  0  0  0  0  0  0  0  0  0  0  0
  1  2  1  0
  2  3  1  0
  3  4  1  0
  3  5  1  0
  5  6  1  0
  6  7  1  0
  7  8  1  0
  8  9  1  0
  7 10  1  0
  9  5  1  0
 10  5  1  0
  1 11  1  0
  1 12  1  0
  1 13  1  0
  2 14  1  0
  3 15  1  0
  4 16  1  0
  4 17  1  0
  4 18  1  0
  6 19  1  0
  6 20  1  0
  7 21  1  0
  8 22  1  0
  8 23  1  0
 10 24  1  0
 10 25  1  0
M  END
>  <Energy>  (475) 
51.898176813278056

>  <compound_id>  (475) 
84599

>  <target_id>  (475) 
1

>  <reference_id>  (475) 
93

>  <inspiration_ids>  (475) 
[93, 98]

>  <energy_score>  (475) 
-26.96317817335276

>  <distance_score>  (475) 
1.5885341555549382

>  <path>  (475) 
/opt/xchem-fragalysis-2/maxwin/BulkDock/SCRATCH/511020/C84599-P93/C84599-P93.minimised.mol

>  <scratch_subdir>  (475) 
/opt/xchem-fragalysis-2/maxwin/BulkDock/SCRATCH/511020/C84599-P93

>  <fragmenstein_runtime>  (475) 
3.4086203575134277

>  <fragmenstein_outcome>  (475) 
too moved

>  <fragmenstein_mode>  (475) 
expansion

>  <fragmenstein_error>  (475) 


$$$$
C84599-P98
     RDKit          3D

 25 26  0  0  0  0  0  0  0  0999 V2000
   13.4072    1.3060   15.6170 C   0  0  0  0  0  0  0  0  0  0  0  0
   14.0641    0.0335   15.8418 N   0  0  0  0  0  0  0  0  0  0  0  0
   13.1664   -1.1351   15.9374 C   0  0  0  0  0  0  0  0  0  0  0  0
   12.4448   -1.4298   14.6192 C   0  0  0  0  0  0  0  0  0  0  0  0
   13.9691   -2.3665   16.3767 C   0  0  0  0  0  0  0  0  0  0  0  0
   13.2774   -3.7200   16.8094 C   0  0  0  0  0  0  0  0  0  0  0  0
   14.7352   -3.9636   17.3377 C   0  0  0  0  0  0  0  0  0  0  0  0
   15.6622   -3.8228   16.1286 C   0  0  0  0  0  0  0  0  0  0  0  0
   15.0426   -2.7177   15.4506 O   0  0  0  0  0  0  0  0  0  0  0  0
   14.6103   -2.4958   17.8355 C   0  0  0  0  0  0  0  0  0  0  0  0
   12.6512    1.5054   16.3822 H   0  0  0  0  0  0  0  0  0  0  0  0
   12.9386    1.3567   14.6299 H   0  0  0  0  0  0  0  0  0  0  0  0
   14.1470    2.1107   15.6713 H   0  0  0  0  0  0  0  0  0  0  0  0
   14.7502   -0.1525   15.1060 H   0  0  0  0  0  0  0  0  0  0  0  0
   12.4114   -0.9317   16.7029 H   0  0  0  0  0  0  0  0  0  0  0  0
   13.1533   -1.5909   13.7991 H   0  0  0  0  0  0  0  0  0  0  0  0
   11.7745   -0.6126   14.3351 H   0  0  0  0  0  0  0  0  0  0  0  0
   11.8342   -2.3354   14.7055 H   0  0  0  0  0  0  0  0  0  0  0  0
   12.9406   -4.3704   16.0070 H   0  0  0  0  0  0  0  0  0  0  0  0
   12.4956   -3.6570   17.5668 H   0  0  0  0  0  0  0  0  0  0  0  0
   14.9110   -4.7496   18.0697 H   0  0  0  0  0  0  0  0  0  0  0  0
   16.6851   -3.5565   16.4116 H   0  0  0  0  0  0  0  0  0  0  0  0
   15.6709   -4.7138   15.5014 H   0  0  0  0  0  0  0  0  0  0  0  0
   15.5490   -1.9556   17.9940 H   0  0  0  0  0  0  0  0  0  0  0  0
   13.9770   -2.3515   18.7101 H   0  0  0  0  0  0  0  0  0  0  0  0
  1  2  1  0
  2  3  1  0
  3  4  1  0
  3  5  1  0
  5  6  1  0
  6  7  1  0
  7  8  1  0
  8  9  1  0
  7 10  1  0
  9  5  1  0
 10  5  1  0
  1 11  1  0
  1 12  1  0
  1 13  1  0
  2 14  1  0
  3 15  1  0
  4 16  1  0
  4 17  1  0
  4 18  1  0
  6 19  1  0
  6 20  1  0
  7 21  1  0
  8 22  1  0
  8 23  1  0
 10 24  1  0
 10 25  1  0
M  END
>  <Energy>  (476) 
52.012619337262656

>  <compound_id>  (476) 
84599

>  <target_id>  (476) 
1

>  <reference_id>  (476) 
98

>  <inspiration_ids>  (476) 
[93, 98]

>  <energy_score>  (476) 
-26.84873564936916

>  <distance_score>  (476) 
1.5921713306097882

>  <path>  (476) 
/opt/xchem-fragalysis-2/maxwin/BulkDock/SCRATCH/511020/C84599-P98/C84599-P98.minimised.mol

>  <scratch_subdir>  (476) 
/opt/xchem-fragalysis-2/maxwin/BulkDock/SCRATCH/511020/C84599-P98

>  <fragmenstein_runtime>  (476) 
3.791249990463257

>  <fragmenstein_outcome>  (476) 
too moved

>  <fragmenstein_mode>  (476) 
expansion

>  <fragmenstein_error>  (476) 


$$$$
C84606-P93
     RDKit          3D

 25 25  0  0  0  0  0  0  0  0999 V2000
   16.1847   -0.9126   17.9094 C   0  0  0  0  0  0  0  0  0  0  0  0
   16.1499   -2.4278   17.7931 C   0  0  0  0  0  0  0  0  0  0  0  0
   14.7612   -2.9218   17.7589 N   0  0  0  0  0  0  0  0  0  0  0  0
   14.6786   -4.1226   18.6084 C   0  0  0  0  0  0  0  0  0  0  0  0
   14.2905   -3.2185   16.3854 C   0  0  0  0  0  0  0  0  0  0  0  0
   14.4787   -2.0898   15.3495 C   0  0  0  0  0  0  0  0  0  0  0  0
   13.3154   -1.1372   15.5497 C   0  0  0  0  0  0  0  0  0  0  0  0
   12.2334   -2.1099   15.9036 C   0  0  0  0  0  0  0  0  0  0  0  0
   11.0369   -1.8543   15.8547 O   0  0  0  0  0  0  0  0  0  0  0  0
   12.7681   -3.4359   16.3582 C   0  0  0  0  0  0  0  0  0  0  0  0
   17.2229   -0.5737   17.9955 H   0  0  0  0  0  0  0  0  0  0  0  0
   15.7449   -0.3894   17.0604 H   0  0  0  0  0  0  0  0  0  0  0  0
   15.6577   -0.5821   18.8118 H   0  0  0  0  0  0  0  0  0  0  0  0
   16.6799   -2.8097   18.6765 H   0  0  0  0  0  0  0  0  0  0  0  0
   16.7337   -2.7736   16.9313 H   0  0  0  0  0  0  0  0  0  0  0  0
   15.4071   -4.8781   18.2993 H   0  0  0  0  0  0  0  0  0  0  0  0
   14.8947   -3.8542   19.6496 H   0  0  0  0  0  0  0  0  0  0  0  0
   13.6814   -4.5684   18.6230 H   0  0  0  0  0  0  0  0  0  0  0  0
   14.8085   -4.1179   16.0290 H   0  0  0  0  0  0  0  0  0  0  0  0
   14.4096   -2.5047   14.3385 H   0  0  0  0  0  0  0  0  0  0  0  0
   15.4489   -1.5922   15.3735 H   0  0  0  0  0  0  0  0  0  0  0  0
   13.0736   -0.5888   14.6368 H   0  0  0  0  0  0  0  0  0  0  0  0
   13.4715   -0.4538   16.3876 H   0  0  0  0  0  0  0  0  0  0  0  0
   12.3293   -3.7025   17.3176 H   0  0  0  0  0  0  0  0  0  0  0  0
   12.4875   -4.1828   15.6226 H   0  0  0  0  0  0  0  0  0  0  0  0
  1  2  1  0
  2  3  1  0
  3  4  1  0
  3  5  1  0
  5  6  1  0
  6  7  1  0
  7  8  1  0
  8  9  2  0
  8 10  1  0
 10  5  1  0
  1 11  1  0
  1 12  1  0
  1 13  1  0
  2 14  1  0
  2 15  1  0
  4 16  1  0
  4 17  1  0
  4 18  1  0
  5 19  1  0
  6 20  1  0
  6 21  1  0
  7 22  1  0
  7 23  1  0
 10 24  1  0
 10 25  1  0
M  END
>  <Energy>  (477) 
15.32429538867372

>  <compound_id>  (477) 
84606

>  <target_id>  (477) 
1

>  <reference_id>  (477) 
93

>  <inspiration_ids>  (477) 
[93, 98]

>  <energy_score>  (477) 
-23.59643265776768

>  <distance_score>  (477) 
1.1853454569247506

>  <path>  (477) 
/opt/xchem-fragalysis-2/maxwin/BulkDock/SCRATCH/511020/C84606-P93/C84606-P93.minimised.mol

>  <scratch_subdir>  (477) 
/opt/xchem-fragalysis-2/maxwin/BulkDock/SCRATCH/511020/C84606-P93

>  <fragmenstein_runtime>  (477) 
22.478390216827393

>  <fragmenstein_outcome>  (477) 
too moved

>  <fragmenstein_mode>  (477) 
expansion

>  <fragmenstein_error>  (477) 


$$$$
C84606-P98
     RDKit          3D

 25 25  0  0  0  0  0  0  0  0999 V2000
   16.1936   -1.1246   18.0388 C   0  0  0  0  0  0  0  0  0  0  0  0
   16.1181   -2.6293   17.8294 C   0  0  0  0  0  0  0  0  0  0  0  0
   14.7201   -3.0868   17.7380 N   0  0  0  0  0  0  0  0  0  0  0  0
   14.6071   -4.3864   18.4343 C   0  0  0  0  0  0  0  0  0  0  0  0
   14.2488   -3.2256   16.3407 C   0  0  0  0  0  0  0  0  0  0  0  0
   14.4960   -2.0402   15.3851 C   0  0  0  0  0  0  0  0  0  0  0  0
   13.3750   -1.0507   15.6430 C   0  0  0  0  0  0  0  0  0  0  0  0
   12.2465   -1.9976   15.9096 C   0  0  0  0  0  0  0  0  0  0  0  0
   11.0613   -1.6978   15.8392 O   0  0  0  0  0  0  0  0  0  0  0  0
   12.7190   -3.3669   16.2920 C   0  0  0  0  0  0  0  0  0  0  0  0
   17.2376   -0.8262   18.1837 H   0  0  0  0  0  0  0  0  0  0  0  0
   15.8047   -0.5359   17.2086 H   0  0  0  0  0  0  0  0  0  0  0  0
   15.6429   -0.8321   18.9401 H   0  0  0  0  0  0  0  0  0  0  0  0
   16.6144   -3.0775   18.7010 H   0  0  0  0  0  0  0  0  0  0  0  0
   16.7116   -2.9400   16.9609 H   0  0  0  0  0  0  0  0  0  0  0  0
   13.5911   -4.7887   18.4129 H   0  0  0  0  0  0  0  0  0  0  0  0
   15.2851   -5.1336   18.0072 H   0  0  0  0  0  0  0  0  0  0  0  0
   14.8558   -4.2648   19.4951 H   0  0  0  0  0  0  0  0  0  0  0  0
   14.7287   -4.1164   15.9196 H   0  0  0  0  0  0  0  0  0  0  0  0
   14.4098   -2.3894   14.3486 H   0  0  0  0  0  0  0  0  0  0  0  0
   15.4893   -1.5941   15.4442 H   0  0  0  0  0  0  0  0  0  0  0  0
   13.1722   -0.4257   14.7709 H   0  0  0  0  0  0  0  0  0  0  0  0
   13.5483   -0.4395   16.5316 H   0  0  0  0  0  0  0  0  0  0  0  0
   12.2647   -3.6731   17.2306 H   0  0  0  0  0  0  0  0  0  0  0  0
   12.4043   -4.0413   15.5047 H   0  0  0  0  0  0  0  0  0  0  0  0
  1  2  1  0
  2  3  1  0
  3  4  1  0
  3  5  1  0
  5  6  1  0
  6  7  1  0
  7  8  1  0
  8  9  2  0
  8 10  1  0
 10  5  1  0
  1 11  1  0
  1 12  1  0
  1 13  1  0
  2 14  1  0
  2 15  1  0
  4 16  1  0
  4 17  1  0
  4 18  1  0
  5 19  1  0
  6 20  1  0
  6 21  1  0
  7 22  1  0
  7 23  1  0
 10 24  1  0
 10 25  1  0
M  END
>  <Energy>  (478) 
15.532797860524592

>  <compound_id>  (478) 
84606

>  <target_id>  (478) 
1

>  <reference_id>  (478) 
98

>  <inspiration_ids>  (478) 
[93, 98]

>  <energy_score>  (478) 
-23.387930185916304

>  <distance_score>  (478) 
1.1360677894498907

>  <path>  (478) 
/opt/xchem-fragalysis-2/maxwin/BulkDock/SCRATCH/511020/C84606-P98/C84606-P98.minimised.mol

>  <scratch_subdir>  (478) 
/opt/xchem-fragalysis-2/maxwin/BulkDock/SCRATCH/511020/C84606-P98

>  <fragmenstein_runtime>  (478) 
22.41014814376831

>  <fragmenstein_outcome>  (478) 
too moved

>  <fragmenstein_mode>  (478) 
expansion

>  <fragmenstein_error>  (478) 


$$$$
C84608-P93
     RDKit          3D

 25 26  0  0  0  0  0  0  0  0999 V2000
   13.9864    2.7958   15.4336 C   0  0  0  0  0  0  0  0  0  0  0  0
   13.2833    1.7186   16.1122 N   0  0  0  0  0  0  0  0  0  0  0  0
   13.7895    0.3959   15.7264 C   0  0  0  0  0  0  0  0  0  0  0  0
   13.3081   -0.6137   16.7767 C   0  0  0  0  0  0  0  0  0  0  0  0
   13.8194   -2.0137   16.5672 C   0  0  0  0  0  0  0  0  0  0  0  0
   12.9585   -3.0348   15.7527 C   0  0  0  0  0  0  0  0  0  0  0  0
   14.0149   -3.9945   16.4166 C   0  0  0  0  0  0  0  0  0  0  0  0
   15.3958   -3.4908   15.9842 C   0  0  0  0  0  0  0  0  0  0  0  0
   15.1820   -2.0774   16.0703 O   0  0  0  0  0  0  0  0  0  0  0  0
   13.7167   -3.1506   17.6867 C   0  0  0  0  0  0  0  0  0  0  0  0
   15.0494    2.8013   15.6949 H   0  0  0  0  0  0  0  0  0  0  0  0
   13.5671    3.7583   15.7423 H   0  0  0  0  0  0  0  0  0  0  0  0
   13.8851    2.7156   14.3465 H   0  0  0  0  0  0  0  0  0  0  0  0
   12.2903    1.7760   15.8932 H   0  0  0  0  0  0  0  0  0  0  0  0
   14.8855    0.4043   15.7075 H   0  0  0  0  0  0  0  0  0  0  0  0
   13.4366    0.1183   14.7268 H   0  0  0  0  0  0  0  0  0  0  0  0
   13.6443   -0.2659   17.7616 H   0  0  0  0  0  0  0  0  0  0  0  0
   12.2136   -0.6253   16.7881 H   0  0  0  0  0  0  0  0  0  0  0  0
   12.9921   -2.8886   14.6719 H   0  0  0  0  0  0  0  0  0  0  0  0
   11.9140   -3.1688   16.0562 H   0  0  0  0  0  0  0  0  0  0  0  0
   13.7858   -5.0519   16.4309 H   0  0  0  0  0  0  0  0  0  0  0  0
   16.1885   -3.7926   16.6752 H   0  0  0  0  0  0  0  0  0  0  0  0
   15.6667   -3.7566   14.9623 H   0  0  0  0  0  0  0  0  0  0  0  0
   12.7484   -3.3360   18.1513 H   0  0  0  0  0  0  0  0  0  0  0  0
   14.4905   -3.1378   18.4596 H   0  0  0  0  0  0  0  0  0  0  0  0
  1  2  1  0
  2  3  1  0
  3  4  1  0
  4  5  1  0
  5  6  1  0
  6  7  1  0
  7  8  1  0
  8  9  1  0
  7 10  1  0
  9  5  1  0
 10  5  1  0
  1 11  1  0
  1 12  1  0
  1 13  1  0
  2 14  1  0
  3 15  1  0
  3 16  1  0
  4 17  1  0
  4 18  1  0
  6 19  1  0
  6 20  1  0
  7 21  1  0
  8 22  1  0
  8 23  1  0
 10 24  1  0
 10 25  1  0
M  END
>  <Energy>  (479) 
35.038632015344348

>  <compound_id>  (479) 
84608

>  <target_id>  (479) 
1

>  <reference_id>  (479) 
93

>  <inspiration_ids>  (479) 
[93, 98]

>  <energy_score>  (479) 
-20.36215151581891

>  <distance_score>  (479) 
1.6050424317553857

>  <path>  (479) 
/opt/xchem-fragalysis-2/maxwin/BulkDock/SCRATCH/511020/C84608-P93/C84608-P93.minimised.mol

>  <scratch_subdir>  (479) 
/opt/xchem-fragalysis-2/maxwin/BulkDock/SCRATCH/511020/C84608-P93

>  <fragmenstein_runtime>  (479) 
2.223144292831421

>  <fragmenstein_outcome>  (479) 
too moved

>  <fragmenstein_mode>  (479) 
expansion

>  <fragmenstein_error>  (479) 


$$$$
C84608-P98
     RDKit          3D

 25 26  0  0  0  0  0  0  0  0999 V2000
   13.9732    2.5730   15.9537 C   0  0  0  0  0  0  0  0  0  0  0  0
   13.1849    1.3451   15.9207 N   0  0  0  0  0  0  0  0  0  0  0  0
   14.0347    0.1560   16.0409 C   0  0  0  0  0  0  0  0  0  0  0  0
   13.1806   -1.1210   16.0992 C   0  0  0  0  0  0  0  0  0  0  0  0
   14.0000   -2.3307   16.4965 C   0  0  0  0  0  0  0  0  0  0  0  0
   13.2882   -3.7087   16.7909 C   0  0  0  0  0  0  0  0  0  0  0  0
   14.7308   -4.0096   17.3312 C   0  0  0  0  0  0  0  0  0  0  0  0
   15.6820   -3.7748   16.1555 C   0  0  0  0  0  0  0  0  0  0  0  0
   15.0802   -2.6116   15.5640 O   0  0  0  0  0  0  0  0  0  0  0  0
   14.5994   -2.5882   17.9534 C   0  0  0  0  0  0  0  0  0  0  0  0
   14.5072    2.6728   16.9040 H   0  0  0  0  0  0  0  0  0  0  0  0
   13.3072    3.4358   15.8566 H   0  0  0  0  0  0  0  0  0  0  0  0
   14.6944    2.6072   15.1308 H   0  0  0  0  0  0  0  0  0  0  0  0
   12.6839    1.2984   15.0321 H   0  0  0  0  0  0  0  0  0  0  0  0
   14.6301    0.2266   16.9593 H   0  0  0  0  0  0  0  0  0  0  0  0
   14.7336    0.0962   15.1981 H   0  0  0  0  0  0  0  0  0  0  0  0
   12.3627   -0.9863   16.8108 H   0  0  0  0  0  0  0  0  0  0  0  0
   12.7140   -1.2914   15.1209 H   0  0  0  0  0  0  0  0  0  0  0  0
   12.4867   -3.7080   17.5308 H   0  0  0  0  0  0  0  0  0  0  0  0
   12.9638   -4.2731   15.9213 H   0  0  0  0  0  0  0  0  0  0  0  0
   14.8855   -4.8557   17.9975 H   0  0  0  0  0  0  0  0  0  0  0  0
   16.7003   -3.5397   16.4797 H   0  0  0  0  0  0  0  0  0  0  0  0
   15.6989   -4.6070   15.4528 H   0  0  0  0  0  0  0  0  0  0  0  0
   13.9411   -2.5192   18.8201 H   0  0  0  0  0  0  0  0  0  0  0  0
   15.5357   -2.0701   18.1827 H   0  0  0  0  0  0  0  0  0  0  0  0
  1  2  1  0
  2  3  1  0
  3  4  1  0
  4  5  1  0
  5  6  1  0
  6  7  1  0
  7  8  1  0
  8  9  1  0
  7 10  1  0
  9  5  1  0
 10  5  1  0
  1 11  1  0
  1 12  1  0
  1 13  1  0
  2 14  1  0
  3 15  1  0
  3 16  1  0
  4 17  1  0
  4 18  1  0
  6 19  1  0
  6 20  1  0
  7 21  1  0
  8 22  1  0
  8 23  1  0
 10 24  1  0
 10 25  1  0
M  END
>  <Energy>  (480) 
31.707168390078849

>  <compound_id>  (480) 
84608

>  <target_id>  (480) 
1

>  <reference_id>  (480) 
98

>  <inspiration_ids>  (480) 
[93, 98]

>  <energy_score>  (480) 
-23.693615141084024

>  <distance_score>  (480) 
1.58864192032602

>  <path>  (480) 
/opt/xchem-fragalysis-2/maxwin/BulkDock/SCRATCH/511020/C84608-P98/C84608-P98.minimised.mol

>  <scratch_subdir>  (480) 
/opt/xchem-fragalysis-2/maxwin/BulkDock/SCRATCH/511020/C84608-P98

>  <fragmenstein_runtime>  (480) 
2.406034469604492

>  <fragmenstein_outcome>  (480) 
too moved

>  <fragmenstein_mode>  (480) 
expansion

>  <fragmenstein_error>  (480) 


$$$$
C84609-P93
     RDKit          3D

 27 27  0  0  0  0  0  0  0  0999 V2000
   12.2937   -0.5721   14.2427 C   0  0  0  0  0  0  0  0  0  0  0  0
   12.2540   -2.0231   14.1322 N   0  0  0  0  0  0  0  0  0  0  0  0
   11.7487   -2.6619   15.3438 C   0  0  0  0  0  0  0  0  0  0  0  0
   12.4879   -2.3311   16.6491 C   0  0  0  0  0  0  0  0  0  0  0  0
   13.9264   -2.4866   16.6770 N   0  0  0  0  0  0  0  0  0  0  0  0
   14.4400   -3.8386   16.7186 C   0  0  0  0  0  0  0  0  0  0  0  0
   15.8614   -3.9455   16.1913 C   0  0  0  0  0  0  0  0  0  0  0  0
   16.5655   -2.5996   16.1001 C   0  0  0  0  0  0  0  0  0  0  0  0
   16.1712   -1.7180   17.2665 C   0  0  0  0  0  0  0  0  0  0  0  0
   14.6903   -1.4485   17.2058 C   0  0  0  0  0  0  0  0  0  0  0  0
   14.2177   -0.3895   17.6158 O   0  0  0  0  0  0  0  0  0  0  0  0
   13.0533   -0.2353   14.9529 H   0  0  0  0  0  0  0  0  0  0  0  0
   12.5607   -0.1438   13.2713 H   0  0  0  0  0  0  0  0  0  0  0  0
   11.3205   -0.1607   14.5302 H   0  0  0  0  0  0  0  0  0  0  0  0
   11.6046   -2.2537   13.3730 H   0  0  0  0  0  0  0  0  0  0  0  0
   10.6908   -2.4044   15.4644 H   0  0  0  0  0  0  0  0  0  0  0  0
   11.7788   -3.7421   15.1896 H   0  0  0  0  0  0  0  0  0  0  0  0
   12.2225   -1.3073   16.9217 H   0  0  0  0  0  0  0  0  0  0  0  0
   12.1283   -3.0062   17.4235 H   0  0  0  0  0  0  0  0  0  0  0  0
   13.7804   -4.5110   16.1652 H   0  0  0  0  0  0  0  0  0  0  0  0
   14.4153   -4.1543   17.7693 H   0  0  0  0  0  0  0  0  0  0  0  0
   16.4304   -4.6204   16.8427 H   0  0  0  0  0  0  0  0  0  0  0  0
   15.8748   -4.4129   15.2033 H   0  0  0  0  0  0  0  0  0  0  0  0
   16.2943   -2.1111   15.1550 H   0  0  0  0  0  0  0  0  0  0  0  0
   17.6507   -2.7484   16.0811 H   0  0  0  0  0  0  0  0  0  0  0  0
   16.7019   -0.7623   17.1990 H   0  0  0  0  0  0  0  0  0  0  0  0
   16.4112   -2.1827   18.2286 H   0  0  0  0  0  0  0  0  0  0  0  0
  1  2  1  0
  2  3  1  0
  3  4  1  0
  4  5  1  0
  5  6  1  0
  6  7  1  0
  7  8  1  0
  8  9  1  0
  9 10  1  0
 10 11  2  0
 10  5  1  0
  1 12  1  0
  1 13  1  0
  1 14  1  0
  2 15  1  0
  3 16  1  0
  3 17  1  0
  4 18  1  0
  4 19  1  0
  6 20  1  0
  6 21  1  0
  7 22  1  0
  7 23  1  0
  8 24  1  0
  8 25  1  0
  9 26  1  0
  9 27  1  0
M  END
>  <Energy>  (481) 
10.442030368301831

>  <compound_id>  (481) 
84609

>  <target_id>  (481) 
1

>  <reference_id>  (481) 
93

>  <inspiration_ids>  (481) 
[93, 98]

>  <energy_score>  (481) 
-13.150892012872717

>  <distance_score>  (481) 
1.5916914429634368

>  <path>  (481) 
/opt/xchem-fragalysis-2/maxwin/BulkDock/SCRATCH/511020/C84609-P93/C84609-P93.minimised.mol

>  <scratch_subdir>  (481) 
/opt/xchem-fragalysis-2/maxwin/BulkDock/SCRATCH/511020/C84609-P93

>  <fragmenstein_runtime>  (481) 
4.0080201625823975

>  <fragmenstein_outcome>  (481) 
too moved

>  <fragmenstein_mode>  (481) 
expansion

>  <fragmenstein_error>  (481) 


$$$$
C84609-P98
     RDKit          3D

 27 27  0  0  0  0  0  0  0  0999 V2000
   12.2833   -0.6160   14.1021 C   0  0  0  0  0  0  0  0  0  0  0  0
   12.2493   -2.0701   14.0545 N   0  0  0  0  0  0  0  0  0  0  0  0
   11.7222   -2.6529   15.2845 C   0  0  0  0  0  0  0  0  0  0  0  0
   12.4772   -2.3041   16.5747 C   0  0  0  0  0  0  0  0  0  0  0  0
   13.9041   -2.5474   16.6224 N   0  0  0  0  0  0  0  0  0  0  0  0
   14.3147   -3.9222   16.8374 C   0  0  0  0  0  0  0  0  0  0  0  0
   15.7575   -4.1951   16.4468 C   0  0  0  0  0  0  0  0  0  0  0  0
   16.5224   -2.9288   16.0974 C   0  0  0  0  0  0  0  0  0  0  0  0
   16.1981   -1.8406   17.0994 C   0  0  0  0  0  0  0  0  0  0  0  0
   14.7333   -1.5014   17.0188 C   0  0  0  0  0  0  0  0  0  0  0  0
   14.3288   -0.3746   17.3048 O   0  0  0  0  0  0  0  0  0  0  0  0
   13.0319   -0.2466   14.8074 H   0  0  0  0  0  0  0  0  0  0  0  0
   12.5622   -0.2310   13.1159 H   0  0  0  0  0  0  0  0  0  0  0  0
   11.3055   -0.1945   14.3576 H   0  0  0  0  0  0  0  0  0  0  0  0
   11.6212   -2.3397   13.2922 H   0  0  0  0  0  0  0  0  0  0  0  0
   10.6716   -2.3618   15.3996 H   0  0  0  0  0  0  0  0  0  0  0  0
   11.7189   -3.7372   15.1655 H   0  0  0  0  0  0  0  0  0  0  0  0
   12.2611   -1.2604   16.8156 H   0  0  0  0  0  0  0  0  0  0  0  0
   12.0807   -2.9335   17.3650 H   0  0  0  0  0  0  0  0  0  0  0  0
   13.6465   -4.5957   16.2948 H   0  0  0  0  0  0  0  0  0  0  0  0
   14.1818   -4.1335   17.9063 H   0  0  0  0  0  0  0  0  0  0  0  0
   16.2560   -4.7100   17.2782 H   0  0  0  0  0  0  0  0  0  0  0  0
   15.8070   -4.8925   15.6054 H   0  0  0  0  0  0  0  0  0  0  0  0
   16.2529   -2.6041   15.0841 H   0  0  0  0  0  0  0  0  0  0  0  0
   17.5984   -3.1347   16.0927 H   0  0  0  0  0  0  0  0  0  0  0  0
   16.7758   -0.9412   16.8609 H   0  0  0  0  0  0  0  0  0  0  0  0
   16.4364   -2.1468   18.1234 H   0  0  0  0  0  0  0  0  0  0  0  0
  1  2  1  0
  2  3  1  0
  3  4  1  0
  4  5  1  0
  5  6  1  0
  6  7  1  0
  7  8  1  0
  8  9  1  0
  9 10  1  0
 10 11  2  0
 10  5  1  0
  1 12  1  0
  1 13  1  0
  1 14  1  0
  2 15  1  0
  3 16  1  0
  3 17  1  0
  4 18  1  0
  4 19  1  0
  6 20  1  0
  6 21  1  0
  7 22  1  0
  7 23  1  0
  8 24  1  0
  8 25  1  0
  9 26  1  0
  9 27  1  0
M  END
>  <Energy>  (482) 
11.322018772414415

>  <compound_id>  (482) 
84609

>  <target_id>  (482) 
1

>  <reference_id>  (482) 
98

>  <inspiration_ids>  (482) 
[93, 98]

>  <energy_score>  (482) 
-12.270903608760989

>  <distance_score>  (482) 
1.5834177916389478

>  <path>  (482) 
/opt/xchem-fragalysis-2/maxwin/BulkDock/SCRATCH/511020/C84609-P98/C84609-P98.minimised.mol

>  <scratch_subdir>  (482) 
/opt/xchem-fragalysis-2/maxwin/BulkDock/SCRATCH/511020/C84609-P98

>  <fragmenstein_runtime>  (482) 
5.09549617767334

>  <fragmenstein_outcome>  (482) 
too moved

>  <fragmenstein_mode>  (482) 
expansion

>  <fragmenstein_error>  (482) 


$$$$
C84615-P93
     RDKit          3D

 50 53  0  0  0  0  0  0  0  0999 V2000
   13.6588    0.4707   12.8743 C   0  0  0  0  0  0  0  0  0  0  0  0
   12.8956    0.0677   14.1435 C   0  0  0  0  0  0  0  0  0  0  0  0
   12.6821    1.2215   15.0427 N   0  0  0  0  0  0  0  0  0  0  0  0
   13.8956    1.7515   15.6802 C   0  0  0  0  0  0  0  0  0  0  0  0
   13.9671    3.2363   15.5626 C   0  0  0  0  0  0  0  0  0  0  0  0
   14.8643    3.9188   14.8743 N   0  0  0  0  0  0  0  0  0  0  0  0
   14.5942    5.2606   15.0141 N   0  0  0  0  0  0  0  0  0  0  0  0
   13.5368    5.3764   15.7842 C   0  0  0  0  0  0  0  0  0  0  0  0
   13.1212    4.1277   16.1624 N   0  0  0  0  0  0  0  0  0  0  0  0
   11.9558    3.8656   16.9751 C   0  0  0  0  0  0  0  0  0  0  0  0
   11.4456    5.1202   17.6894 C   0  0  0  0  0  0  0  0  0  0  0  0
   11.4517    6.3314   16.7538 C   0  0  0  0  0  0  0  0  0  0  0  0
   12.8662    6.6182   16.2446 C   0  0  0  0  0  0  0  0  0  0  0  0
   13.4313   -1.1356   14.8942 C   0  0  0  0  0  0  0  0  0  0  0  0
   12.5730   -1.9620   15.6372 C   0  0  0  0  0  0  0  0  0  0  0  0
   13.0863   -2.9486   16.4954 C   0  0  0  0  0  0  0  0  0  0  0  0
   14.4660   -3.1225   16.6271 C   0  0  0  0  0  0  0  0  0  0  0  0
   15.0760   -3.9288   17.6237 N   0  0  0  0  0  0  0  0  0  0  0  0
   16.5133   -3.9920   17.7575 C   0  0  0  0  0  0  0  0  0  0  0  0
   16.7571   -4.9896   18.8621 C   0  0  0  0  0  0  0  0  0  0  0  0
   15.5366   -4.8400   19.7444 C   0  0  0  0  0  0  0  0  0  0  0  0
   14.4583   -4.4225   18.7722 C   0  0  0  0  0  0  0  0  0  0  0  0
   13.2724   -4.5161   19.0308 O   0  0  0  0  0  0  0  0  0  0  0  0
   15.2972   -2.3862   15.7785 C   0  0  0  0  0  0  0  0  0  0  0  0
   14.7953   -1.4033   14.9373 C   0  0  0  0  0  0  0  0  0  0  0  0
   13.7806   -0.3893   12.2066 H   0  0  0  0  0  0  0  0  0  0  0  0
   14.6579    0.8680   13.0777 H   0  0  0  0  0  0  0  0  0  0  0  0
   13.1070    1.2424   12.3253 H   0  0  0  0  0  0  0  0  0  0  0  0
   11.8970   -0.2187   13.7841 H   0  0  0  0  0  0  0  0  0  0  0  0
   12.0459    0.9186   15.7749 H   0  0  0  0  0  0  0  0  0  0  0  0
   13.9077    1.4631   16.7383 H   0  0  0  0  0  0  0  0  0  0  0  0
   14.8158    1.3488   15.2467 H   0  0  0  0  0  0  0  0  0  0  0  0
   11.1832    3.4776   16.3018 H   0  0  0  0  0  0  0  0  0  0  0  0
   12.2113    3.0901   17.7036 H   0  0  0  0  0  0  0  0  0  0  0  0
   12.0831    5.3332   18.5569 H   0  0  0  0  0  0  0  0  0  0  0  0
   10.4333    4.9434   18.0687 H   0  0  0  0  0  0  0  0  0  0  0  0
   10.7841    6.1356   15.9049 H   0  0  0  0  0  0  0  0  0  0  0  0
   11.0607    7.2126   17.2744 H   0  0  0  0  0  0  0  0  0  0  0  0
   12.8245    7.3489   15.4296 H   0  0  0  0  0  0  0  0  0  0  0  0
   13.4639    7.0615   17.0499 H   0  0  0  0  0  0  0  0  0  0  0  0
   11.4958   -1.8245   15.5770 H   0  0  0  0  0  0  0  0  0  0  0  0
   12.3936   -3.5496   17.0768 H   0  0  0  0  0  0  0  0  0  0  0  0
   16.8924   -3.0047   18.0478 H   0  0  0  0  0  0  0  0  0  0  0  0
   16.9875   -4.3274   16.8295 H   0  0  0  0  0  0  0  0  0  0  0  0
   16.8020   -6.0056   18.4537 H   0  0  0  0  0  0  0  0  0  0  0  0
   17.6938   -4.8094   19.3974 H   0  0  0  0  0  0  0  0  0  0  0  0
   15.6671   -4.0471   20.4873 H   0  0  0  0  0  0  0  0  0  0  0  0
   15.2776   -5.7795   20.2389 H   0  0  0  0  0  0  0  0  0  0  0  0
   16.3765   -2.5016   15.7795 H   0  0  0  0  0  0  0  0  0  0  0  0
   15.5032   -0.8220   14.3512 H   0  0  0  0  0  0  0  0  0  0  0  0
  1  2  1  0
  2  3  1  0
  3  4  1  0
  4  5  1  0
  5  6  2  0
  6  7  1  0
  7  8  2  0
  8  9  1  0
  9 10  1  0
 10 11  1  0
 11 12  1  0
 12 13  1  0
  2 14  1  0
 14 15  2  0
 15 16  1  0
 16 17  2  0
 17 18  1  0
 18 19  1  0
 19 20  1  0
 20 21  1  0
 21 22  1  0
 22 23  2  0
 17 24  1  0
 24 25  2  0
  9  5  1  0
 25 14  1  0
 13  8  1  0
 22 18  1  0
  1 26  1  0
  1 27  1  0
  1 28  1  0
  2 29  1  0
  3 30  1  0
  4 31  1  0
  4 32  1  0
 10 33  1  0
 10 34  1  0
 11 35  1  0
 11 36  1  0
 12 37  1  0
 12 38  1  0
 13 39  1  0
 13 40  1  0
 15 41  1  0
 16 42  1  0
 19 43  1  0
 19 44  1  0
 20 45  1  0
 20 46  1  0
 21 47  1  0
 21 48  1  0
 24 49  1  0
 25 50  1  0
M  END
>  <Energy>  (483) 
16.593660480905104

>  <compound_id>  (483) 
84615

>  <target_id>  (483) 
1

>  <reference_id>  (483) 
93

>  <inspiration_ids>  (483) 
[93, 98]

>  <energy_score>  (483) 
-61.47963807759487

>  <distance_score>  (483) 
1.7084038686897653

>  <path>  (483) 
/opt/xchem-fragalysis-2/maxwin/BulkDock/SCRATCH/511020/C84615-P93/C84615-P93.minimised.mol

>  <scratch_subdir>  (483) 
/opt/xchem-fragalysis-2/maxwin/BulkDock/SCRATCH/511020/C84615-P93

>  <fragmenstein_runtime>  (483) 
3.2755026817321777

>  <fragmenstein_outcome>  (483) 
too moved

>  <fragmenstein_mode>  (483) 
expansion

>  <fragmenstein_error>  (483) 


$$$$
C84615-P98
     RDKit          3D

 50 53  0  0  0  0  0  0  0  0999 V2000
   13.6057    0.3669   12.8226 C   0  0  0  0  0  0  0  0  0  0  0  0
   12.8631    0.0066   14.1165 C   0  0  0  0  0  0  0  0  0  0  0  0
   12.6457    1.1969   14.9654 N   0  0  0  0  0  0  0  0  0  0  0  0
   13.8448    1.6973   15.6541 C   0  0  0  0  0  0  0  0  0  0  0  0
   13.8307    3.1798   15.8579 C   0  0  0  0  0  0  0  0  0  0  0  0
   14.8727    3.9740   15.6828 N   0  0  0  0  0  0  0  0  0  0  0  0
   14.5008    5.2629   15.9787 N   0  0  0  0  0  0  0  0  0  0  0  0
   13.2370    5.2419   16.3321 C   0  0  0  0  0  0  0  0  0  0  0  0
   12.7806    3.9502   16.2824 N   0  0  0  0  0  0  0  0  0  0  0  0
   11.4189    3.5672   16.5761 C   0  0  0  0  0  0  0  0  0  0  0  0
   10.6536    4.6487   17.3420 C   0  0  0  0  0  0  0  0  0  0  0  0
   10.9028    6.0282   16.7298 C   0  0  0  0  0  0  0  0  0  0  0  0
   12.3912    6.3812   16.7727 C   0  0  0  0  0  0  0  0  0  0  0  0
   13.4150   -1.1690   14.8965 C   0  0  0  0  0  0  0  0  0  0  0  0
   12.5727   -1.9915   15.6602 C   0  0  0  0  0  0  0  0  0  0  0  0
   13.1012   -2.9885   16.4995 C   0  0  0  0  0  0  0  0  0  0  0  0
   14.4816   -3.1862   16.5898 C   0  0  0  0  0  0  0  0  0  0  0  0
   15.1014   -4.0527   17.5273 N   0  0  0  0  0  0  0  0  0  0  0  0
   16.5334   -4.2391   17.5712 C   0  0  0  0  0  0  0  0  0  0  0  0
   16.8127   -4.7273   18.9716 C   0  0  0  0  0  0  0  0  0  0  0  0
   15.5603   -5.4876   19.3378 C   0  0  0  0  0  0  0  0  0  0  0  0
   14.4868   -4.7739   18.5493 C   0  0  0  0  0  0  0  0  0  0  0  0
   13.3027   -4.8904   18.8055 O   0  0  0  0  0  0  0  0  0  0  0  0
   15.2942   -2.4358   15.7358 C   0  0  0  0  0  0  0  0  0  0  0  0
   14.7797   -1.4340   14.9220 C   0  0  0  0  0  0  0  0  0  0  0  0
   13.7149   -0.5159   12.1826 H   0  0  0  0  0  0  0  0  0  0  0  0
   14.6076    0.7705   12.9969 H   0  0  0  0  0  0  0  0  0  0  0  0
   13.0449    1.1193   12.2560 H   0  0  0  0  0  0  0  0  0  0  0  0
   11.8633   -0.2996   13.7765 H   0  0  0  0  0  0  0  0  0  0  0  0
   11.9734    0.9262   15.6777 H   0  0  0  0  0  0  0  0  0  0  0  0
   13.9443    1.2049   16.6290 H   0  0  0  0  0  0  0  0  0  0  0  0
   14.7554    1.4708   15.0896 H   0  0  0  0  0  0  0  0  0  0  0  0
   10.9298    3.3725   15.6152 H   0  0  0  0  0  0  0  0  0  0  0  0
   11.4397    2.6453   17.1626 H   0  0  0  0  0  0  0  0  0  0  0  0
   10.9755    4.6552   18.3911 H   0  0  0  0  0  0  0  0  0  0  0  0
    9.5827    4.4178   17.3348 H   0  0  0  0  0  0  0  0  0  0  0  0
   10.5510    6.0312   15.6901 H   0  0  0  0  0  0  0  0  0  0  0  0
   10.3265    6.7901   17.2663 H   0  0  0  0  0  0  0  0  0  0  0  0
   12.5816    7.2574   16.1436 H   0  0  0  0  0  0  0  0  0  0  0  0
   12.6742    6.6490   17.7978 H   0  0  0  0  0  0  0  0  0  0  0  0
   11.4949   -1.8542   15.6241 H   0  0  0  0  0  0  0  0  0  0  0  0
   12.4152   -3.5877   17.0908 H   0  0  0  0  0  0  0  0  0  0  0  0
   17.0959   -3.3156   17.4129 H   0  0  0  0  0  0  0  0  0  0  0  0
   16.8108   -4.9864   16.8194 H   0  0  0  0  0  0  0  0  0  0  0  0
   17.7193   -5.3353   19.0383 H   0  0  0  0  0  0  0  0  0  0  0  0
   16.9328   -3.8720   19.6488 H   0  0  0  0  0  0  0  0  0  0  0  0
   15.3556   -5.4361   20.4101 H   0  0  0  0  0  0  0  0  0  0  0  0
   15.6195   -6.5309   19.0182 H   0  0  0  0  0  0  0  0  0  0  0  0
   16.3688   -2.5744   15.6832 H   0  0  0  0  0  0  0  0  0  0  0  0
   15.4786   -0.8535   14.3245 H   0  0  0  0  0  0  0  0  0  0  0  0
  1  2  1  0
  2  3  1  0
  3  4  1  0
  4  5  1  0
  5  6  2  0
  6  7  1  0
  7  8  2  0
  8  9  1  0
  9 10  1  0
 10 11  1  0
 11 12  1  0
 12 13  1  0
  2 14  1  0
 14 15  2  0
 15 16  1  0
 16 17  2  0
 17 18  1  0
 18 19  1  0
 19 20  1  0
 20 21  1  0
 21 22  1  0
 22 23  2  0
 17 24  1  0
 24 25  2  0
  9  5  1  0
 25 14  1  0
 13  8  1  0
 22 18  1  0
  1 26  1  0
  1 27  1  0
  1 28  1  0
  2 29  1  0
  3 30  1  0
  4 31  1  0
  4 32  1  0
 10 33  1  0
 10 34  1  0
 11 35  1  0
 11 36  1  0
 12 37  1  0
 12 38  1  0
 13 39  1  0
 13 40  1  0
 15 41  1  0
 16 42  1  0
 19 43  1  0
 19 44  1  0
 20 45  1  0
 20 46  1  0
 21 47  1  0
 21 48  1  0
 24 49  1  0
 25 50  1  0
M  END
>  <Energy>  (484) 
15.464557190809234

>  <compound_id>  (484) 
84615

>  <target_id>  (484) 
1

>  <reference_id>  (484) 
98

>  <inspiration_ids>  (484) 
[93, 98]

>  <energy_score>  (484) 
-62.60874136768979

>  <distance_score>  (484) 
1.7317409004267756

>  <path>  (484) 
/opt/xchem-fragalysis-2/maxwin/BulkDock/SCRATCH/511020/C84615-P98/C84615-P98.minimised.mol

>  <scratch_subdir>  (484) 
/opt/xchem-fragalysis-2/maxwin/BulkDock/SCRATCH/511020/C84615-P98

>  <fragmenstein_runtime>  (484) 
3.5319790840148926

>  <fragmenstein_outcome>  (484) 
too moved

>  <fragmenstein_mode>  (484) 
expansion

>  <fragmenstein_error>  (484) 


$$$$
C84618-P93
     RDKit          3D

 44 47  0  0  0  0  0  0  0  0999 V2000
   11.3788    0.2077   14.2001 C   0  0  0  0  0  0  0  0  0  0  0  0
   12.8504    0.4936   14.4688 C   0  0  0  0  0  0  0  0  0  0  0  0
   12.9504    1.2305   15.7356 N   0  0  0  0  0  0  0  0  0  0  0  0
   14.1975    1.9783   15.8991 C   0  0  0  0  0  0  0  0  0  0  0  0
   14.0031    3.5039   15.7813 C   0  0  0  0  0  0  0  0  0  0  0  0
   13.4910    3.9401   14.3881 C   0  0  0  0  0  0  0  0  0  0  0  0
   13.2953    5.4602   14.3565 C   0  0  0  0  0  0  0  0  0  0  0  0
   13.6967    6.0589   15.7056 C   0  0  0  0  0  0  0  0  0  0  0  0
   15.1566    5.7368   16.0254 C   0  0  0  0  0  0  0  0  0  0  0  0
   15.3564    4.2186   16.0236 C   0  0  0  0  0  0  0  0  0  0  0  0
   12.8677    5.4861   16.7268 O   0  0  0  0  0  0  0  0  0  0  0  0
   13.0073    4.0564   16.8247 C   0  0  0  0  0  0  0  0  0  0  0  0
   13.6792   -0.7432   14.5290 C   0  0  0  0  0  0  0  0  0  0  0  0
   14.6419   -1.0899   13.6073 C   0  0  0  0  0  0  0  0  0  0  0  0
   15.3500   -2.1625   14.0220 O   0  0  0  0  0  0  0  0  0  0  0  0
   14.8341   -2.5409   15.2168 C   0  0  0  0  0  0  0  0  0  0  0  0
   15.3371   -3.5495   16.0286 C   0  0  0  0  0  0  0  0  0  0  0  0
   14.5637   -3.8734   17.1399 C   0  0  0  0  0  0  0  0  0  0  0  0
   13.3650   -3.2282   17.4072 C   0  0  0  0  0  0  0  0  0  0  0  0
   12.9435   -2.1626   16.6103 C   0  0  0  0  0  0  0  0  0  0  0  0
   13.7100   -1.7878   15.5018 C   0  0  0  0  0  0  0  0  0  0  0  0
   10.9363   -0.4672   14.9403 H   0  0  0  0  0  0  0  0  0  0  0  0
   11.2729   -0.2522   13.2161 H   0  0  0  0  0  0  0  0  0  0  0  0
   10.7906    1.1327   14.1918 H   0  0  0  0  0  0  0  0  0  0  0  0
   13.2013    1.1327   13.6483 H   0  0  0  0  0  0  0  0  0  0  0  0
   12.8692    0.5638   16.5000 H   0  0  0  0  0  0  0  0  0  0  0  0
   14.5883    1.7546   16.9007 H   0  0  0  0  0  0  0  0  0  0  0  0
   14.9743    1.6430   15.2005 H   0  0  0  0  0  0  0  0  0  0  0  0
   14.1981    3.6393   13.6053 H   0  0  0  0  0  0  0  0  0  0  0  0
   12.5355    3.4584   14.1492 H   0  0  0  0  0  0  0  0  0  0  0  0
   13.8833    5.9016   13.5441 H   0  0  0  0  0  0  0  0  0  0  0  0
   12.2398    5.6782   14.1539 H   0  0  0  0  0  0  0  0  0  0  0  0
   13.5348    7.1414   15.7072 H   0  0  0  0  0  0  0  0  0  0  0  0
   15.8288    6.2087   15.3001 H   0  0  0  0  0  0  0  0  0  0  0  0
   15.4143    6.1287   17.0167 H   0  0  0  0  0  0  0  0  0  0  0  0
   16.0816    3.9412   15.2482 H   0  0  0  0  0  0  0  0  0  0  0  0
   15.7926    3.9083   16.9815 H   0  0  0  0  0  0  0  0  0  0  0  0
   13.3341    3.8268   17.8453 H   0  0  0  0  0  0  0  0  0  0  0  0
   12.0072    3.6274   16.6982 H   0  0  0  0  0  0  0  0  0  0  0  0
   14.9782   -0.6473   12.6800 H   0  0  0  0  0  0  0  0  0  0  0  0
   16.2448   -4.0809   15.7723 H   0  0  0  0  0  0  0  0  0  0  0  0
   14.9167   -4.6418   17.8190 H   0  0  0  0  0  0  0  0  0  0  0  0
   12.7856   -3.5407   18.2703 H   0  0  0  0  0  0  0  0  0  0  0  0
   12.0294   -1.6313   16.8219 H   0  0  0  0  0  0  0  0  0  0  0  0
  1  2  1  0
  2  3  1  0
  3  4  1  0
  4  5  1  0
  5  6  1  0
  6  7  1  0
  7  8  1  0
  8  9  1  0
  9 10  1  0
  8 11  1  0
 11 12  1  0
  2 13  1  0
 13 14  2  0
 14 15  1  0
 15 16  1  0
 16 17  2  0
 17 18  1  0
 18 19  2  0
 19 20  1  0
 20 21  2  0
 10  5  1  0
 21 13  1  0
 12  5  1  0
 21 16  1  0
  1 22  1  0
  1 23  1  0
  1 24  1  0
  2 25  1  0
  3 26  1  0
  4 27  1  0
  4 28  1  0
  6 29  1  0
  6 30  1  0
  7 31  1  0
  7 32  1  0
  8 33  1  0
  9 34  1  0
  9 35  1  0
 10 36  1  0
 10 37  1  0
 12 38  1  0
 12 39  1  0
 14 40  1  0
 17 41  1  0
 18 42  1  0
 19 43  1  0
 20 44  1  0
M  END
>  <Energy>  (485) 
45.901312552019178

>  <compound_id>  (485) 
84618

>  <target_id>  (485) 
1

>  <reference_id>  (485) 
93

>  <inspiration_ids>  (485) 
[93, 98]

>  <energy_score>  (485) 
-55.46845712670839

>  <distance_score>  (485) 
2.4558473485363175

>  <path>  (485) 
/opt/xchem-fragalysis-2/maxwin/BulkDock/SCRATCH/511020/C84618-P93/C84618-P93.minimised.mol

>  <scratch_subdir>  (485) 
/opt/xchem-fragalysis-2/maxwin/BulkDock/SCRATCH/511020/C84618-P93

>  <fragmenstein_runtime>  (485) 
2.93261456489563

>  <fragmenstein_outcome>  (485) 
too moved

>  <fragmenstein_mode>  (485) 
expansion

>  <fragmenstein_error>  (485) 


$$$$
C84618-P98
     RDKit          3D

 44 47  0  0  0  0  0  0  0  0999 V2000
   11.5428   -0.1204   14.0617 C   0  0  0  0  0  0  0  0  0  0  0  0
   12.9754    0.2910   14.3670 C   0  0  0  0  0  0  0  0  0  0  0  0
   12.9881    1.1350   15.5665 N   0  0  0  0  0  0  0  0  0  0  0  0
   14.1195    2.0619   15.6017 C   0  0  0  0  0  0  0  0  0  0  0  0
   14.0933    3.0005   16.8253 C   0  0  0  0  0  0  0  0  0  0  0  0
   12.7499    3.7560   16.9724 C   0  0  0  0  0  0  0  0  0  0  0  0
   12.7810    4.6380   18.2254 C   0  0  0  0  0  0  0  0  0  0  0  0
   14.1391    4.5020   18.9154 C   0  0  0  0  0  0  0  0  0  0  0  0
   15.2700    4.9155   17.9715 C   0  0  0  0  0  0  0  0  0  0  0  0
   15.2123    4.0645   16.6984 C   0  0  0  0  0  0  0  0  0  0  0  0
   14.3233    3.1263   19.2825 O   0  0  0  0  0  0  0  0  0  0  0  0
   14.3552    2.2473   18.1460 C   0  0  0  0  0  0  0  0  0  0  0  0
   13.8736   -0.8789   14.5669 C   0  0  0  0  0  0  0  0  0  0  0  0
   14.9671   -1.1642   13.7816 C   0  0  0  0  0  0  0  0  0  0  0  0
   15.6545   -2.2192   14.2656 O   0  0  0  0  0  0  0  0  0  0  0  0
   15.0045   -2.6456   15.3745 C   0  0  0  0  0  0  0  0  0  0  0  0
   15.4257   -3.6837   16.1977 C   0  0  0  0  0  0  0  0  0  0  0  0
   14.5270   -4.0772   17.1850 C   0  0  0  0  0  0  0  0  0  0  0  0
   13.3048   -3.4393   17.3424 C   0  0  0  0  0  0  0  0  0  0  0  0
   12.9558   -2.3460   16.5444 C   0  0  0  0  0  0  0  0  0  0  0  0
   13.8345   -1.9252   15.5400 C   0  0  0  0  0  0  0  0  0  0  0  0
   11.0709   -0.6663   14.8848 H   0  0  0  0  0  0  0  0  0  0  0  0
   11.5371   -0.7693   13.1823 H   0  0  0  0  0  0  0  0  0  0  0  0
   10.9200    0.7538   13.8407 H   0  0  0  0  0  0  0  0  0  0  0  0
   13.3178    0.8752   13.5019 H   0  0  0  0  0  0  0  0  0  0  0  0
   12.9985    0.5363   16.3887 H   0  0  0  0  0  0  0  0  0  0  0  0
   15.0664    1.5079   15.5925 H   0  0  0  0  0  0  0  0  0  0  0  0
   14.0974    2.6797   14.6947 H   0  0  0  0  0  0  0  0  0  0  0  0
   12.5565    4.3740   16.0868 H   0  0  0  0  0  0  0  0  0  0  0  0
   11.9085    3.0574   17.0545 H   0  0  0  0  0  0  0  0  0  0  0  0
   12.5817    5.6822   17.9600 H   0  0  0  0  0  0  0  0  0  0  0  0
   11.9849    4.3142   18.9068 H   0  0  0  0  0  0  0  0  0  0  0  0
   14.1653    5.1016   19.8307 H   0  0  0  0  0  0  0  0  0  0  0  0
   15.1988    5.9794   17.7193 H   0  0  0  0  0  0  0  0  0  0  0  0
   16.2379    4.7570   18.4619 H   0  0  0  0  0  0  0  0  0  0  0  0
   15.0327    4.7100   15.8294 H   0  0  0  0  0  0  0  0  0  0  0  0
   16.1863    3.5864   16.5338 H   0  0  0  0  0  0  0  0  0  0  0  0
   15.3364    1.7588   18.1343 H   0  0  0  0  0  0  0  0  0  0  0  0
   13.6117    1.4667   18.3248 H   0  0  0  0  0  0  0  0  0  0  0  0
   15.3969   -0.6967   12.9065 H   0  0  0  0  0  0  0  0  0  0  0  0
   16.3634   -4.1968   16.0258 H   0  0  0  0  0  0  0  0  0  0  0  0
   14.7930   -4.8951   17.8491 H   0  0  0  0  0  0  0  0  0  0  0  0
   12.6381   -3.7927   18.1198 H   0  0  0  0  0  0  0  0  0  0  0  0
   12.0073   -1.8463   16.6728 H   0  0  0  0  0  0  0  0  0  0  0  0
  1  2  1  0
  2  3  1  0
  3  4  1  0
  4  5  1  0
  5  6  1  0
  6  7  1  0
  7  8  1  0
  8  9  1  0
  9 10  1  0
  8 11  1  0
 11 12  1  0
  2 13  1  0
 13 14  2  0
 14 15  1  0
 15 16  1  0
 16 17  2  0
 17 18  1  0
 18 19  2  0
 19 20  1  0
 20 21  2  0
 10  5  1  0
 21 13  1  0
 12  5  1  0
 21 16  1  0
  1 22  1  0
  1 23  1  0
  1 24  1  0
  2 25  1  0
  3 26  1  0
  4 27  1  0
  4 28  1  0
  6 29  1  0
  6 30  1  0
  7 31  1  0
  7 32  1  0
  8 33  1  0
  9 34  1  0
  9 35  1  0
 10 36  1  0
 10 37  1  0
 12 38  1  0
 12 39  1  0
 14 40  1  0
 17 41  1  0
 18 42  1  0
 19 43  1  0
 20 44  1  0
M  END
>  <Energy>  (486) 
42.368047620288387

>  <compound_id>  (486) 
84618

>  <target_id>  (486) 
1

>  <reference_id>  (486) 
98

>  <inspiration_ids>  (486) 
[93, 98]

>  <energy_score>  (486) 
-59.001722058440436

>  <distance_score>  (486) 
2.5193721032481404

>  <path>  (486) 
/opt/xchem-fragalysis-2/maxwin/BulkDock/SCRATCH/511020/C84618-P98/C84618-P98.minimised.mol

>  <scratch_subdir>  (486) 
/opt/xchem-fragalysis-2/maxwin/BulkDock/SCRATCH/511020/C84618-P98

>  <fragmenstein_runtime>  (486) 
2.3942737579345703

>  <fragmenstein_outcome>  (486) 
too moved

>  <fragmenstein_mode>  (486) 
expansion

>  <fragmenstein_error>  (486) 


$$$$
C84619-P93
     RDKit          3D

 44 47  0  0  0  0  0  0  0  0999 V2000
   10.5236   -0.6510   15.0061 C   0  0  0  0  0  0  0  0  0  0  0  0
   11.8173   -1.2904   15.2900 C   0  0  0  0  0  0  0  0  0  0  0  0
   11.7291   -2.4675   15.9578 O   0  0  0  0  0  0  0  0  0  0  0  0
   12.9845   -2.7891   16.3429 C   0  0  0  0  0  0  0  0  0  0  0  0
   13.3104   -3.8299   17.1983 C   0  0  0  0  0  0  0  0  0  0  0  0
   14.6480   -3.9541   17.5331 C   0  0  0  0  0  0  0  0  0  0  0  0
   15.6096   -3.1187   16.9804 C   0  0  0  0  0  0  0  0  0  0  0  0
   15.2565   -2.0824   16.1166 C   0  0  0  0  0  0  0  0  0  0  0  0
   13.9009   -1.8915   15.8199 C   0  0  0  0  0  0  0  0  0  0  0  0
   13.1412   -0.9102   15.1160 C   0  0  0  0  0  0  0  0  0  0  0  0
   13.6941    0.3085   14.4406 C   0  0  0  0  0  0  0  0  0  0  0  0
   13.4768    0.2699   12.9283 C   0  0  0  0  0  0  0  0  0  0  0  0
   13.0455    1.5025   14.9885 N   0  0  0  0  0  0  0  0  0  0  0  0
   13.5367    1.9076   16.3135 C   0  0  0  0  0  0  0  0  0  0  0  0
   14.7846    2.7867   16.2336 C   0  0  0  0  0  0  0  0  0  0  0  0
   16.1787    2.0727   16.2301 C   0  0  0  0  0  0  0  0  0  0  0  0
   16.6699    3.3735   16.9315 C   0  0  0  0  0  0  0  0  0  0  0  0
   16.8778    4.5031   15.9155 C   0  0  0  0  0  0  0  0  0  0  0  0
   15.5430    4.8904   15.2669 C   0  0  0  0  0  0  0  0  0  0  0  0
   14.6612    3.7672   15.1545 O   0  0  0  0  0  0  0  0  0  0  0  0
   15.2661    3.3846   17.6059 C   0  0  0  0  0  0  0  0  0  0  0  0
    9.7041   -1.3749   15.0215 H   0  0  0  0  0  0  0  0  0  0  0  0
   10.5346   -0.1284   14.0474 H   0  0  0  0  0  0  0  0  0  0  0  0
   10.3053    0.0945   15.7786 H   0  0  0  0  0  0  0  0  0  0  0  0
   12.5474   -4.4770   17.6071 H   0  0  0  0  0  0  0  0  0  0  0  0
   14.9624   -4.7031   18.2523 H   0  0  0  0  0  0  0  0  0  0  0  0
   16.6557   -3.2543   17.2481 H   0  0  0  0  0  0  0  0  0  0  0  0
   16.0189   -1.4184   15.7225 H   0  0  0  0  0  0  0  0  0  0  0  0
   14.7763    0.3644   14.5960 H   0  0  0  0  0  0  0  0  0  0  0  0
   13.8729   -0.6567   12.4978 H   0  0  0  0  0  0  0  0  0  0  0  0
   13.9846    1.1096   12.4401 H   0  0  0  0  0  0  0  0  0  0  0  0
   12.4149    0.3341   12.6709 H   0  0  0  0  0  0  0  0  0  0  0  0
   13.2101    2.2971   14.3633 H   0  0  0  0  0  0  0  0  0  0  0  0
   12.7337    2.5004   16.7685 H   0  0  0  0  0  0  0  0  0  0  0  0
   13.6876    1.0520   16.9815 H   0  0  0  0  0  0  0  0  0  0  0  0
   16.6148    1.8634   15.2492 H   0  0  0  0  0  0  0  0  0  0  0  0
   16.2421    1.1668   16.8446 H   0  0  0  0  0  0  0  0  0  0  0  0
   17.5220    3.2368   17.6035 H   0  0  0  0  0  0  0  0  0  0  0  0
   17.3209    5.3834   16.3939 H   0  0  0  0  0  0  0  0  0  0  0  0
   17.5837    4.1709   15.1450 H   0  0  0  0  0  0  0  0  0  0  0  0
   15.0332    5.6513   15.8685 H   0  0  0  0  0  0  0  0  0  0  0  0
   15.7042    5.3145   14.2711 H   0  0  0  0  0  0  0  0  0  0  0  0
   14.8657    4.3624   17.8866 H   0  0  0  0  0  0  0  0  0  0  0  0
   15.1667    2.7110   18.4662 H   0  0  0  0  0  0  0  0  0  0  0  0
  1  2  1  0
  2  3  1  0
  3  4  1  0
  4  5  2  0
  5  6  1  0
  6  7  2  0
  7  8  1  0
  8  9  2  0
  9 10  1  0
 10 11  1  0
 11 12  1  0
 11 13  1  0
 13 14  1  0
 14 15  1  0
 15 16  1  0
 16 17  1  0
 17 18  1  0
 18 19  1  0
 19 20  1  0
 17 21  1  0
 10  2  2  0
 20 15  1  0
  9  4  1  0
 21 15  1  0
  1 22  1  0
  1 23  1  0
  1 24  1  0
  5 25  1  0
  6 26  1  0
  7 27  1  0
  8 28  1  0
 11 29  1  0
 12 30  1  0
 12 31  1  0
 12 32  1  0
 13 33  1  0
 14 34  1  0
 14 35  1  0
 16 36  1  0
 16 37  1  0
 17 38  1  0
 18 39  1  0
 18 40  1  0
 19 41  1  0
 19 42  1  0
 21 43  1  0
 21 44  1  0
M  END
>  <Energy>  (487) 
53.565951158620123

>  <compound_id>  (487) 
84619

>  <target_id>  (487) 
1

>  <reference_id>  (487) 
93

>  <inspiration_ids>  (487) 
[93, 98]

>  <energy_score>  (487) 
-44.80254833435086

>  <distance_score>  (487) 
2.161740035270209

>  <path>  (487) 
/opt/xchem-fragalysis-2/maxwin/BulkDock/SCRATCH/511020/C84619-P93/C84619-P93.minimised.mol

>  <scratch_subdir>  (487) 
/opt/xchem-fragalysis-2/maxwin/BulkDock/SCRATCH/511020/C84619-P93

>  <fragmenstein_runtime>  (487) 
3.005887746810913

>  <fragmenstein_outcome>  (487) 
too moved

>  <fragmenstein_mode>  (487) 
expansion

>  <fragmenstein_error>  (487) 


$$$$
C84619-P98
     RDKit          3D

 44 47  0  0  0  0  0  0  0  0999 V2000
   10.5884   -0.6344   14.9745 C   0  0  0  0  0  0  0  0  0  0  0  0
   11.8535   -1.3282   15.2589 C   0  0  0  0  0  0  0  0  0  0  0  0
   11.7127   -2.4893   15.9434 O   0  0  0  0  0  0  0  0  0  0  0  0
   12.9544   -2.8856   16.2980 C   0  0  0  0  0  0  0  0  0  0  0  0
   13.2361   -3.9589   17.1281 C   0  0  0  0  0  0  0  0  0  0  0  0
   14.5693   -4.2100   17.3956 C   0  0  0  0  0  0  0  0  0  0  0  0
   15.5666   -3.4217   16.8356 C   0  0  0  0  0  0  0  0  0  0  0  0
   15.2587   -2.3316   16.0161 C   0  0  0  0  0  0  0  0  0  0  0  0
   13.9114   -2.0455   15.7550 C   0  0  0  0  0  0  0  0  0  0  0  0
   13.1937   -1.0294   15.0534 C   0  0  0  0  0  0  0  0  0  0  0  0
   13.7971    0.1268   14.3191 C   0  0  0  0  0  0  0  0  0  0  0  0
   13.4947    0.0653   12.8202 C   0  0  0  0  0  0  0  0  0  0  0  0
   13.2902    1.3876   14.8721 N   0  0  0  0  0  0  0  0  0  0  0  0
   13.9260    1.7454   16.1486 C   0  0  0  0  0  0  0  0  0  0  0  0
   13.4060    3.0875   16.6758 C   0  0  0  0  0  0  0  0  0  0  0  0
   13.7807    4.3638   15.8501 C   0  0  0  0  0  0  0  0  0  0  0  0
   13.7149    5.0842   17.2287 C   0  0  0  0  0  0  0  0  0  0  0  0
   12.2628    5.3756   17.6234 C   0  0  0  0  0  0  0  0  0  0  0  0
   11.4948    4.0658   17.8347 C   0  0  0  0  0  0  0  0  0  0  0  0
   11.9805    3.0167   16.9907 O   0  0  0  0  0  0  0  0  0  0  0  0
   14.2737    3.7493   17.8087 C   0  0  0  0  0  0  0  0  0  0  0  0
   10.6178   -0.1189   14.0127 H   0  0  0  0  0  0  0  0  0  0  0  0
   10.4023    0.1220   15.7446 H   0  0  0  0  0  0  0  0  0  0  0  0
    9.7405   -1.3251   14.9888 H   0  0  0  0  0  0  0  0  0  0  0  0
   12.4410   -4.5523   17.5521 H   0  0  0  0  0  0  0  0  0  0  0  0
   14.8433   -5.0202   18.0650 H   0  0  0  0  0  0  0  0  0  0  0  0
   16.6094   -3.6430   17.0544 H   0  0  0  0  0  0  0  0  0  0  0  0
   16.0539   -1.7158   15.6089 H   0  0  0  0  0  0  0  0  0  0  0  0
   14.8902    0.1027   14.4128 H   0  0  0  0  0  0  0  0  0  0  0  0
   13.8133   -0.8938   12.3960 H   0  0  0  0  0  0  0  0  0  0  0  0
   14.0240    0.8599   12.2823 H   0  0  0  0  0  0  0  0  0  0  0  0
   12.4264    0.1822   12.6131 H   0  0  0  0  0  0  0  0  0  0  0  0
   13.4363    2.1374   14.2003 H   0  0  0  0  0  0  0  0  0  0  0  0
   13.7326    0.9747   16.9035 H   0  0  0  0  0  0  0  0  0  0  0  0
   15.0126    1.8043   16.0096 H   0  0  0  0  0  0  0  0  0  0  0  0
   13.0517    4.6852   15.1006 H   0  0  0  0  0  0  0  0  0  0  0  0
   14.7751    4.3461   15.3879 H   0  0  0  0  0  0  0  0  0  0  0  0
   14.3691    5.9559   17.3207 H   0  0  0  0  0  0  0  0  0  0  0  0
   12.2186    5.9767   18.5382 H   0  0  0  0  0  0  0  0  0  0  0  0
   11.7835    5.9654   16.8330 H   0  0  0  0  0  0  0  0  0  0  0  0
   11.6041    3.7289   18.8714 H   0  0  0  0  0  0  0  0  0  0  0  0
   10.4262    4.2064   17.6461 H   0  0  0  0  0  0  0  0  0  0  0  0
   14.0015    3.5126   18.8408 H   0  0  0  0  0  0  0  0  0  0  0  0
   15.3580    3.6241   17.6999 H   0  0  0  0  0  0  0  0  0  0  0  0
  1  2  1  0
  2  3  1  0
  3  4  1  0
  4  5  2  0
  5  6  1  0
  6  7  2  0
  7  8  1  0
  8  9  2  0
  9 10  1  0
 10 11  1  0
 11 12  1  0
 11 13  1  0
 13 14  1  0
 14 15  1  0
 15 16  1  0
 16 17  1  0
 17 18  1  0
 18 19  1  0
 19 20  1  0
 17 21  1  0
 10  2  2  0
 20 15  1  0
  9  4  1  0
 21 15  1  0
  1 22  1  0
  1 23  1  0
  1 24  1  0
  5 25  1  0
  6 26  1  0
  7 27  1  0
  8 28  1  0
 11 29  1  0
 12 30  1  0
 12 31  1  0
 12 32  1  0
 13 33  1  0
 14 34  1  0
 14 35  1  0
 16 36  1  0
 16 37  1  0
 17 38  1  0
 18 39  1  0
 18 40  1  0
 19 41  1  0
 19 42  1  0
 21 43  1  0
 21 44  1  0
M  END
>  <Energy>  (488) 
56.777084766574852

>  <compound_id>  (488) 
84619

>  <target_id>  (488) 
1

>  <reference_id>  (488) 
98

>  <inspiration_ids>  (488) 
[93, 98]

>  <energy_score>  (488) 
-41.59141472639607

>  <distance_score>  (488) 
2.130296270839313

>  <path>  (488) 
/opt/xchem-fragalysis-2/maxwin/BulkDock/SCRATCH/511020/C84619-P98/C84619-P98.minimised.mol

>  <scratch_subdir>  (488) 
/opt/xchem-fragalysis-2/maxwin/BulkDock/SCRATCH/511020/C84619-P98

>  <fragmenstein_runtime>  (488) 
4.279265403747559

>  <fragmenstein_outcome>  (488) 
too moved

>  <fragmenstein_mode>  (488) 
expansion

>  <fragmenstein_error>  (488) 


$$$$
C84623-P93
     RDKit          3D

 44 46  0  0  0  0  0  0  0  0999 V2000
   18.8873   -3.4785   14.6001 C   0  0  0  0  0  0  0  0  0  0  0  0
   18.2308   -2.2191   14.5913 O   0  0  0  0  0  0  0  0  0  0  0  0
   17.0218   -2.2188   15.2125 C   0  0  0  0  0  0  0  0  0  0  0  0
   16.2181   -3.4919   15.8174 C   0  0  0  0  0  0  0  0  0  0  0  0
   14.6936   -3.5169   16.4579 N   0  0  0  0  0  0  0  0  0  0  0  0
   13.7436   -2.2292   16.5542 C   0  0  0  0  0  0  0  0  0  0  0  0
   14.2586   -0.7049   15.9071 C   0  0  0  0  0  0  0  0  0  0  0  0
   12.8520    0.1911   15.4711 C   0  0  0  0  0  0  0  0  0  0  0  0
   11.8335   -0.6517   14.6718 C   0  0  0  0  0  0  0  0  0  0  0  0
   12.9641    1.5196   14.7294 N   0  0  0  0  0  0  0  0  0  0  0  0
   14.2218    2.2746   14.9783 C   0  0  0  0  0  0  0  0  0  0  0  0
   15.1431    1.2093   15.4646 C   0  0  0  0  0  0  0  0  0  0  0  0
   14.6734    1.0916   17.2282 C   0  0  0  0  0  0  0  0  0  0  0  0
   14.9433   -0.3155   17.9558 C   0  0  0  0  0  0  0  0  0  0  0  0
   15.7566   -1.4608   16.8169 C   0  0  0  0  0  0  0  0  0  0  0  0
   17.1152   -0.0880   16.9283 C   0  0  0  0  0  0  0  0  0  0  0  0
   16.7178    1.3372   15.9550 C   0  0  0  0  0  0  0  0  0  0  0  0
   14.9190   -1.9285   14.7927 C   0  0  0  0  0  0  0  0  0  0  0  0
   14.6946   -0.0934   14.1347 O   0  0  0  0  0  0  0  0  0  0  0  0
   16.1330   -0.7138   15.1716 C   0  0  0  0  0  0  0  0  0  0  0  0
   19.0667   -3.8248   15.6236 H   0  0  0  0  0  0  0  0  0  0  0  0
   18.3218   -4.2213   14.0280 H   0  0  0  0  0  0  0  0  0  0  0  0
   19.8599   -3.3537   14.1145 H   0  0  0  0  0  0  0  0  0  0  0  0
   16.6479   -4.4911   15.8292 H   0  0  0  0  0  0  0  0  0  0  0  0
   12.7389   -2.4299   16.9059 H   0  0  0  0  0  0  0  0  0  0  0  0
   12.3450    0.3856   16.4203 H   0  0  0  0  0  0  0  0  0  0  0  0
   12.2289   -0.9585   13.6980 H   0  0  0  0  0  0  0  0  0  0  0  0
   11.5279   -1.5519   15.2111 H   0  0  0  0  0  0  0  0  0  0  0  0
   10.9187   -0.0745   14.4900 H   0  0  0  0  0  0  0  0  0  0  0  0
   13.0758    1.2031   13.7566 H   0  0  0  0  0  0  0  0  0  0  0  0
   14.5692    2.7151   14.0389 H   0  0  0  0  0  0  0  0  0  0  0  0
   14.0592    3.0799   15.7000 H   0  0  0  0  0  0  0  0  0  0  0  0
   15.2326    1.8685   17.7705 H   0  0  0  0  0  0  0  0  0  0  0  0
   13.6441    1.4212   17.4067 H   0  0  0  0  0  0  0  0  0  0  0  0
   15.5696   -0.1836   18.8470 H   0  0  0  0  0  0  0  0  0  0  0  0
   14.0173   -0.7325   18.3602 H   0  0  0  0  0  0  0  0  0  0  0  0
   16.1181   -2.2529   17.5093 H   0  0  0  0  0  0  0  0  0  0  0  0
   18.0907   -0.4821   16.6090 H   0  0  0  0  0  0  0  0  0  0  0  0
   17.2617    0.2271   17.9677 H   0  0  0  0  0  0  0  0  0  0  0  0
   16.8753    2.2187   16.5885 H   0  0  0  0  0  0  0  0  0  0  0  0
   17.4309    1.4393   15.1261 H   0  0  0  0  0  0  0  0  0  0  0  0
   15.4874   -2.2797   13.8837 H   0  0  0  0  0  0  0  0  0  0  0  0
   13.8888   -2.2966   14.5425 H   0  0  0  0  0  0  0  0  0  0  0  0
   16.5792   -0.1067   14.3469 H   0  0  0  0  0  0  0  0  0  0  0  0
  1  2  1  0
  2  3  1  0
  3  4  2  0
  4  5  1  0
  5  6  2  0
  6  7  1  0
  7  8  1  0
  8  9  1  0
  8 10  1  0
 10 11  1  0
 11 12  1  0
 12 13  1  0
 13 14  1  0
 14 15  1  0
 15 16  1  0
 16 17  1  0
 15 18  1  0
 18 19  1  0
  7 20  2  0
 20  3  1  0
 17 12  1  0
 19 12  1  0
  1 21  1  0
  1 22  1  0
  1 23  1  0
  4 24  1  0
  6 25  1  0
  8 26  1  0
  9 27  1  0
  9 28  1  0
  9 29  1  0
 10 30  1  0
 11 31  1  0
 11 32  1  0
 13 33  1  0
 13 34  1  0
 14 35  1  0
 14 36  1  0
 15 37  1  0
 16 38  1  0
 16 39  1  0
 17 40  1  0
 17 41  1  0
 18 42  1  0
 18 43  1  0
 20 44  1  0
M  END
>  <Energy>  (489) 
1546.0164385965197

>  <compound_id>  (489) 
84623

>  <target_id>  (489) 
1

>  <reference_id>  (489) 
93

>  <inspiration_ids>  (489) 
[93, 98]

>  <energy_score>  (489) 
1423.0966029065112

>  <distance_score>  (489) 
2.62373211365803

>  <path>  (489) 
/opt/xchem-fragalysis-2/maxwin/BulkDock/SCRATCH/511020/C84623-P93/C84623-P93.minimised.mol

>  <scratch_subdir>  (489) 
/opt/xchem-fragalysis-2/maxwin/BulkDock/SCRATCH/511020/C84623-P93

>  <fragmenstein_runtime>  (489) 
4.775426864624023

>  <fragmenstein_outcome>  (489) 
too moved

>  <fragmenstein_mode>  (489) 
expansion

>  <fragmenstein_error>  (489) 


$$$$
C84623-P98
     RDKit          3D

 44 46  0  0  0  0  0  0  0  0999 V2000
   17.4937   -1.0965   16.3923 C   0  0  0  0  0  0  0  0  0  0  0  0
   15.5786   -1.6310   16.6158 O   0  0  0  0  0  0  0  0  0  0  0  0
   14.3415   -2.1831   15.5790 C   0  0  0  0  0  0  0  0  0  0  0  0
   13.2656   -2.8259   16.1889 C   0  0  0  0  0  0  0  0  0  0  0  0
   11.9764   -2.4524   15.9543 N   0  0  0  0  0  0  0  0  0  0  0  0
   11.8055   -1.3178   15.2256 C   0  0  0  0  0  0  0  0  0  0  0  0
   12.8533   -0.6715   14.5917 C   0  0  0  0  0  0  0  0  0  0  0  0
   12.9019    0.8100   14.3071 C   0  0  0  0  0  0  0  0  0  0  0  0
   12.2648    1.1074   12.9497 C   0  0  0  0  0  0  0  0  0  0  0  0
   14.2725    1.3919   14.3129 N   0  0  0  0  0  0  0  0  0  0  0  0
   15.0532    1.4327   15.5704 C   0  0  0  0  0  0  0  0  0  0  0  0
   15.5550    0.1651   16.3250 C   0  0  0  0  0  0  0  0  0  0  0  0
   14.3318   -0.3912   17.6264 C   0  0  0  0  0  0  0  0  0  0  0  0
   14.8343   -1.8613   18.5269 C   0  0  0  0  0  0  0  0  0  0  0  0
   16.4453   -2.4769   18.0332 C   0  0  0  0  0  0  0  0  0  0  0  0
   17.0278   -0.9184   18.6648 C   0  0  0  0  0  0  0  0  0  0  0  0
   16.5686    0.4756   17.7827 C   0  0  0  0  0  0  0  0  0  0  0  0
   16.6546   -2.8823   16.0551 C   0  0  0  0  0  0  0  0  0  0  0  0
   16.2292   -1.1913   15.0938 O   0  0  0  0  0  0  0  0  0  0  0  0
   14.0174   -1.3890   14.4817 C   0  0  0  0  0  0  0  0  0  0  0  0
   17.6462   -0.0354   16.1391 H   0  0  0  0  0  0  0  0  0  0  0  0
   18.1687   -1.6003   17.0970 H   0  0  0  0  0  0  0  0  0  0  0  0
   17.9955   -1.4690   15.4403 H   0  0  0  0  0  0  0  0  0  0  0  0
   13.3882   -3.6278   16.9054 H   0  0  0  0  0  0  0  0  0  0  0  0
   10.8050   -0.8979   15.2453 H   0  0  0  0  0  0  0  0  0  0  0  0
   12.3245    1.3331   15.0800 H   0  0  0  0  0  0  0  0  0  0  0  0
   12.2373    2.1860   12.7577 H   0  0  0  0  0  0  0  0  0  0  0  0
   12.8202    0.6348   12.1316 H   0  0  0  0  0  0  0  0  0  0  0  0
   11.2337    0.7387   12.9082 H   0  0  0  0  0  0  0  0  0  0  0  0
   14.8370    0.9440   13.5919 H   0  0  0  0  0  0  0  0  0  0  0  0
   15.9579    1.9990   15.3172 H   0  0  0  0  0  0  0  0  0  0  0  0
   14.5092    2.0643   16.2828 H   0  0  0  0  0  0  0  0  0  0  0  0
   14.1988    0.4109   18.3633 H   0  0  0  0  0  0  0  0  0  0  0  0
   13.3395   -0.5166   17.2064 H   0  0  0  0  0  0  0  0  0  0  0  0
   14.8429   -1.5936   19.5910 H   0  0  0  0  0  0  0  0  0  0  0  0
   14.1023   -2.6610   18.4559 H   0  0  0  0  0  0  0  0  0  0  0  0
   16.7466   -3.3371   18.6361 H   0  0  0  0  0  0  0  0  0  0  0  0
   18.1180   -0.9313   18.8116 H   0  0  0  0  0  0  0  0  0  0  0  0
   16.6595   -0.7852   19.6909 H   0  0  0  0  0  0  0  0  0  0  0  0
   16.0201    1.1386   18.4648 H   0  0  0  0  0  0  0  0  0  0  0  0
   17.4559    1.0834   17.5483 H   0  0  0  0  0  0  0  0  0  0  0  0
   17.6706   -3.1894   15.7517 H   0  0  0  0  0  0  0  0  0  0  0  0
   15.9442   -3.6332   15.6821 H   0  0  0  0  0  0  0  0  0  0  0  0
   14.7601   -1.0443   13.7743 H   0  0  0  0  0  0  0  0  0  0  0  0
  1  2  1  0
  2  3  1  0
  3  4  2  0
  4  5  1  0
  5  6  2  0
  6  7  1  0
  7  8  1  0
  8  9  1  0
  8 10  1  0
 10 11  1  0
 11 12  1  0
 12 13  1  0
 13 14  1  0
 14 15  1  0
 15 16  1  0
 16 17  1  0
 15 18  1  0
 18 19  1  0
  7 20  2  0
 20  3  1  0
 17 12  1  0
 19 12  1  0
  1 21  1  0
  1 22  1  0
  1 23  1  0
  4 24  1  0
  6 25  1  0
  8 26  1  0
  9 27  1  0
  9 28  1  0
  9 29  1  0
 10 30  1  0
 11 31  1  0
 11 32  1  0
 13 33  1  0
 13 34  1  0
 14 35  1  0
 14 36  1  0
 15 37  1  0
 16 38  1  0
 16 39  1  0
 17 40  1  0
 17 41  1  0
 18 42  1  0
 18 43  1  0
 20 44  1  0
M  END
>  <Energy>  (490) 
1113.4430693153815

>  <compound_id>  (490) 
84623

>  <target_id>  (490) 
1

>  <reference_id>  (490) 
98

>  <inspiration_ids>  (490) 
[93, 98]

>  <energy_score>  (490) 
990.5232336253779

>  <distance_score>  (490) 
3.0301487711922834

>  <path>  (490) 
/opt/xchem-fragalysis-2/maxwin/BulkDock/SCRATCH/511020/C84623-P98/C84623-P98.minimised.mol

>  <scratch_subdir>  (490) 
/opt/xchem-fragalysis-2/maxwin/BulkDock/SCRATCH/511020/C84623-P98

>  <fragmenstein_runtime>  (490) 
4.5197227001190186

>  <fragmenstein_outcome>  (490) 
too moved

>  <fragmenstein_mode>  (490) 
expansion

>  <fragmenstein_error>  (490) 


$$$$
C84624-P93
     RDKit          3D

 34 36  0  0  0  0  0  0  0  0999 V2000
   16.6492    0.7287   14.4435 C   0  0  0  0  0  0  0  0  0  0  0  0
   15.2653    0.2015   14.8502 C   0  0  0  0  0  0  0  0  0  0  0  0
   14.5429    1.2409   15.5909 N   0  0  0  0  0  0  0  0  0  0  0  0
   13.1778    1.5270   15.1756 C   0  0  0  0  0  0  0  0  0  0  0  0
   12.1886    0.3802   15.2185 C   0  0  0  0  0  0  0  0  0  0  0  0
   12.2757   -0.9680   16.0436 C   0  0  0  0  0  0  0  0  0  0  0  0
   11.1608   -1.3502   15.0356 C   0  0  0  0  0  0  0  0  0  0  0  0
   10.0510   -0.3364   15.2621 C   0  0  0  0  0  0  0  0  0  0  0  0
   10.8224    0.8680   15.4334 O   0  0  0  0  0  0  0  0  0  0  0  0
   12.0922   -0.6310   14.0037 C   0  0  0  0  0  0  0  0  0  0  0  0
   15.4467   -1.0247   15.7226 C   0  0  0  0  0  0  0  0  0  0  0  0
   15.6512   -0.9211   17.1062 C   0  0  0  0  0  0  0  0  0  0  0  0
   15.7655   -2.0609   17.8909 C   0  0  0  0  0  0  0  0  0  0  0  0
   15.6731   -3.2863   17.2696 C   0  0  0  0  0  0  0  0  0  0  0  0
   15.7687   -4.3954   18.0169 F   0  0  0  0  0  0  0  0  0  0  0  0
   15.4891   -3.4418   15.9453 N   0  0  0  0  0  0  0  0  0  0  0  0
   15.3932   -2.3125   15.1993 C   0  0  0  0  0  0  0  0  0  0  0  0
   16.5558    1.6057   13.7929 H   0  0  0  0  0  0  0  0  0  0  0  0
   17.2112   -0.0340   13.8921 H   0  0  0  0  0  0  0  0  0  0  0  0
   17.2519    1.0160   15.3135 H   0  0  0  0  0  0  0  0  0  0  0  0
   14.7477   -0.0527   13.9214 H   0  0  0  0  0  0  0  0  0  0  0  0
   15.0725    2.1121   15.5816 H   0  0  0  0  0  0  0  0  0  0  0  0
   13.1809    1.9777   14.1757 H   0  0  0  0  0  0  0  0  0  0  0  0
   12.8194    2.3125   15.8527 H   0  0  0  0  0  0  0  0  0  0  0  0
   12.0106   -0.8853   17.0847 H   0  0  0  0  0  0  0  0  0  0  0  0
   13.1191   -1.6386   15.9710 H   0  0  0  0  0  0  0  0  0  0  0  0
   10.9234   -2.4026   14.8909 H   0  0  0  0  0  0  0  0  0  0  0  0
    9.3902   -0.2065   14.4033 H   0  0  0  0  0  0  0  0  0  0  0  0
    9.4485   -0.5184   16.1490 H   0  0  0  0  0  0  0  0  0  0  0  0
   12.9756   -1.1973   13.7009 H   0  0  0  0  0  0  0  0  0  0  0  0
   11.6112   -0.2203   13.1129 H   0  0  0  0  0  0  0  0  0  0  0  0
   15.7067    0.0552   17.5835 H   0  0  0  0  0  0  0  0  0  0  0  0
   15.9122   -2.0010   18.9621 H   0  0  0  0  0  0  0  0  0  0  0  0
   15.2622   -2.4828   14.1340 H   0  0  0  0  0  0  0  0  0  0  0  0
  1  2  1  0
  2  3  1  0
  3  4  1  0
  4  5  1  0
  5  6  1  0
  6  7  1  0
  7  8  1  0
  8  9  1  0
  7 10  1  0
  2 11  1  0
 11 12  2  0
 12 13  1  0
 13 14  2  0
 14 15  1  0
 14 16  1  0
 16 17  2  0
  9  5  1  0
 17 11  1  0
 10  5  1  0
  1 18  1  0
  1 19  1  0
  1 20  1  0
  2 21  1  0
  3 22  1  0
  4 23  1  0
  4 24  1  0
  6 25  1  0
  6 26  1  0
  7 27  1  0
  8 28  1  0
  8 29  1  0
 10 30  1  0
 10 31  1  0
 12 32  1  0
 13 33  1  0
 17 34  1  0
M  END
>  <Energy>  (491) 
75.109337478920722

>  <compound_id>  (491) 
84624

>  <target_id>  (491) 
1

>  <reference_id>  (491) 
93

>  <inspiration_ids>  (491) 
[93, 98]

>  <energy_score>  (491) 
-33.11205790472559

>  <distance_score>  (491) 
2.9131491927775897

>  <path>  (491) 
/opt/xchem-fragalysis-2/maxwin/BulkDock/SCRATCH/511020/C84624-P93/C84624-P93.minimised.mol

>  <scratch_subdir>  (491) 
/opt/xchem-fragalysis-2/maxwin/BulkDock/SCRATCH/511020/C84624-P93

>  <fragmenstein_runtime>  (491) 
2.2625064849853516

>  <fragmenstein_outcome>  (491) 
too moved

>  <fragmenstein_mode>  (491) 
expansion

>  <fragmenstein_error>  (491) 


$$$$
C84624-P98
     RDKit          3D

 34 36  0  0  0  0  0  0  0  0999 V2000
   11.6007    0.2706   15.5158 C   0  0  0  0  0  0  0  0  0  0  0  0
   12.9927    0.4165   16.1493 C   0  0  0  0  0  0  0  0  0  0  0  0
   13.9222    1.2859   15.4264 N   0  0  0  0  0  0  0  0  0  0  0  0
   13.8901    1.2323   13.9737 C   0  0  0  0  0  0  0  0  0  0  0  0
   14.3626   -0.0627   13.3564 C   0  0  0  0  0  0  0  0  0  0  0  0
   13.6145   -1.4663   13.3939 C   0  0  0  0  0  0  0  0  0  0  0  0
   15.0241   -1.9166   12.9409 C   0  0  0  0  0  0  0  0  0  0  0  0
   15.1780   -1.2135   11.6093 C   0  0  0  0  0  0  0  0  0  0  0  0
   14.6994    0.1071   11.9418 O   0  0  0  0  0  0  0  0  0  0  0  0
   15.5522   -0.8855   13.9717 C   0  0  0  0  0  0  0  0  0  0  0  0
   13.6507   -0.8344   16.7102 C   0  0  0  0  0  0  0  0  0  0  0  0
   14.8825   -0.7254   17.3780 C   0  0  0  0  0  0  0  0  0  0  0  0
   15.5287   -1.8518   17.8780 C   0  0  0  0  0  0  0  0  0  0  0  0
   14.9070   -3.0721   17.7307 C   0  0  0  0  0  0  0  0  0  0  0  0
   15.5158   -4.1685   18.2044 F   0  0  0  0  0  0  0  0  0  0  0  0
   13.7059   -3.2312   17.1427 N   0  0  0  0  0  0  0  0  0  0  0  0
   13.1052   -2.1161   16.6542 C   0  0  0  0  0  0  0  0  0  0  0  0
   10.9035   -0.2239   16.1976 H   0  0  0  0  0  0  0  0  0  0  0  0
   11.1755    1.2552   15.2894 H   0  0  0  0  0  0  0  0  0  0  0  0
   11.6056   -0.3104   14.5918 H   0  0  0  0  0  0  0  0  0  0  0  0
   12.8106    1.0037   17.0552 H   0  0  0  0  0  0  0  0  0  0  0  0
   13.7390    2.2533   15.6957 H   0  0  0  0  0  0  0  0  0  0  0  0
   12.9050    1.5089   13.5813 H   0  0  0  0  0  0  0  0  0  0  0  0
   14.5646    2.0280   13.6317 H   0  0  0  0  0  0  0  0  0  0  0  0
   12.8072   -1.5981   12.6688 H   0  0  0  0  0  0  0  0  0  0  0  0
   13.2949   -1.9049   14.3237 H   0  0  0  0  0  0  0  0  0  0  0  0
   15.3543   -2.9423   13.0345 H   0  0  0  0  0  0  0  0  0  0  0  0
   16.2188   -1.1493   11.2790 H   0  0  0  0  0  0  0  0  0  0  0  0
   14.5598   -1.6557   10.8250 H   0  0  0  0  0  0  0  0  0  0  0  0
   15.5188   -1.2362   14.9949 H   0  0  0  0  0  0  0  0  0  0  0  0
   16.5537   -0.4867   13.7794 H   0  0  0  0  0  0  0  0  0  0  0  0
   15.3656    0.2455   17.4764 H   0  0  0  0  0  0  0  0  0  0  0  0
   16.4910   -1.7845   18.3694 H   0  0  0  0  0  0  0  0  0  0  0  0
   12.1420   -2.3142   16.1916 H   0  0  0  0  0  0  0  0  0  0  0  0
  1  2  1  0
  2  3  1  0
  3  4  1  0
  4  5  1  0
  5  6  1  0
  6  7  1  0
  7  8  1  0
  8  9  1  0
  7 10  1  0
  2 11  1  0
 11 12  2  0
 12 13  1  0
 13 14  2  0
 14 15  1  0
 14 16  1  0
 16 17  2  0
  9  5  1  0
 17 11  1  0
 10  5  1  0
  1 18  1  0
  1 19  1  0
  1 20  1  0
  2 21  1  0
  3 22  1  0
  4 23  1  0
  4 24  1  0
  6 25  1  0
  6 26  1  0
  7 27  1  0
  8 28  1  0
  8 29  1  0
 10 30  1  0
 10 31  1  0
 12 32  1  0
 13 33  1  0
 17 34  1  0
M  END
>  <Energy>  (492) 
79.568638007838103

>  <compound_id>  (492) 
84624

>  <target_id>  (492) 
1

>  <reference_id>  (492) 
98

>  <inspiration_ids>  (492) 
[93, 98]

>  <energy_score>  (492) 
-28.65275737580727

>  <distance_score>  (492) 
3.2676993885584533

>  <path>  (492) 
/opt/xchem-fragalysis-2/maxwin/BulkDock/SCRATCH/511020/C84624-P98/C84624-P98.minimised.mol

>  <scratch_subdir>  (492) 
/opt/xchem-fragalysis-2/maxwin/BulkDock/SCRATCH/511020/C84624-P98

>  <fragmenstein_runtime>  (492) 
2.036060333251953

>  <fragmenstein_outcome>  (492) 
too moved

>  <fragmenstein_mode>  (492) 
expansion

>  <fragmenstein_error>  (492) 


$$$$
C84625-P93
     RDKit          3D

 49 51  0  0  0  0  0  0  0  0999 V2000
   16.9811    0.8931   14.5104 C   0  0  0  0  0  0  0  0  0  0  0  0
   15.5803    0.8761   15.1459 C   0  0  0  0  0  0  0  0  0  0  0  0
   14.6251    1.1495   14.0757 N   0  0  0  0  0  0  0  0  0  0  0  0
   13.3013    1.5539   14.5453 C   0  0  0  0  0  0  0  0  0  0  0  0
   12.3757    0.3440   14.6560 C   0  0  0  0  0  0  0  0  0  0  0  0
   11.6546    0.2639   16.0174 C   0  0  0  0  0  0  0  0  0  0  0  0
   10.5848   -0.5485   15.2589 C   0  0  0  0  0  0  0  0  0  0  0  0
   11.0852   -1.9988   15.1979 C   0  0  0  0  0  0  0  0  0  0  0  0
   12.3235   -2.0989   14.3244 C   0  0  0  0  0  0  0  0  0  0  0  0
   13.0610   -0.8806   14.2452 O   0  0  0  0  0  0  0  0  0  0  0  0
   10.9275    0.4312   14.0764 C   0  0  0  0  0  0  0  0  0  0  0  0
   15.3541   -0.3784   15.9618 C   0  0  0  0  0  0  0  0  0  0  0  0
   15.7804   -1.6498   15.5876 C   0  0  0  0  0  0  0  0  0  0  0  0
   15.7382   -2.7040   16.5032 C   0  0  0  0  0  0  0  0  0  0  0  0
   15.2466   -2.4847   17.7867 C   0  0  0  0  0  0  0  0  0  0  0  0
   15.2541   -3.5457   18.8866 C   0  0  0  0  0  0  0  0  0  0  0  0
   16.3769   -4.5862   18.7121 C   0  0  0  0  0  0  0  0  0  0  0  0
   15.4701   -2.8892   20.2709 C   0  0  0  0  0  0  0  0  0  0  0  0
   13.8855   -4.2378   18.8871 C   0  0  0  0  0  0  0  0  0  0  0  0
   14.7002   -1.2951   18.1139 N   0  0  0  0  0  0  0  0  0  0  0  0
   14.7786   -0.2852   17.2174 C   0  0  0  0  0  0  0  0  0  0  0  0
   17.7566    0.7159   15.2646 H   0  0  0  0  0  0  0  0  0  0  0  0
   17.0932    0.1332   13.7285 H   0  0  0  0  0  0  0  0  0  0  0  0
   17.1866    1.8677   14.0515 H   0  0  0  0  0  0  0  0  0  0  0  0
   15.5811    1.7330   15.8346 H   0  0  0  0  0  0  0  0  0  0  0  0
   14.5004    0.2803   13.5433 H   0  0  0  0  0  0  0  0  0  0  0  0
   13.3523    2.1339   15.4742 H   0  0  0  0  0  0  0  0  0  0  0  0
   12.8942    2.2367   13.7903 H   0  0  0  0  0  0  0  0  0  0  0  0
   11.3088    1.2337   16.3948 H   0  0  0  0  0  0  0  0  0  0  0  0
   12.1938   -0.2746   16.7937 H   0  0  0  0  0  0  0  0  0  0  0  0
    9.5706   -0.4618   15.6595 H   0  0  0  0  0  0  0  0  0  0  0  0
   11.3337   -2.3538   16.2025 H   0  0  0  0  0  0  0  0  0  0  0  0
   10.3104   -2.6744   14.8272 H   0  0  0  0  0  0  0  0  0  0  0  0
   12.9842   -2.8696   14.7232 H   0  0  0  0  0  0  0  0  0  0  0  0
   12.0553   -2.3859   13.3044 H   0  0  0  0  0  0  0  0  0  0  0  0
   10.4503    1.4169   14.1445 H   0  0  0  0  0  0  0  0  0  0  0  0
   10.8210    0.0710   13.0554 H   0  0  0  0  0  0  0  0  0  0  0  0
   16.1951   -1.8284   14.5990 H   0  0  0  0  0  0  0  0  0  0  0  0
   16.1147   -3.6716   16.1919 H   0  0  0  0  0  0  0  0  0  0  0  0
   16.2779   -5.1530   17.7835 H   0  0  0  0  0  0  0  0  0  0  0  0
   17.3626   -4.1059   18.6990 H   0  0  0  0  0  0  0  0  0  0  0  0
   16.3732   -5.3136   19.5324 H   0  0  0  0  0  0  0  0  0  0  0  0
   16.4128   -2.3300   20.3009 H   0  0  0  0  0  0  0  0  0  0  0  0
   15.5029   -3.6440   21.0653 H   0  0  0  0  0  0  0  0  0  0  0  0
   14.6641   -2.1912   20.5264 H   0  0  0  0  0  0  0  0  0  0  0  0
   13.8530   -5.0602   19.6097 H   0  0  0  0  0  0  0  0  0  0  0  0
   13.6311   -4.6292   17.8965 H   0  0  0  0  0  0  0  0  0  0  0  0
   13.0926   -3.5387   19.1609 H   0  0  0  0  0  0  0  0  0  0  0  0
   14.3992    0.6635   17.5895 H   0  0  0  0  0  0  0  0  0  0  0  0
  1  2  1  0
  2  3  1  0
  3  4  1  0
  4  5  1  0
  5  6  1  0
  6  7  1  0
  7  8  1  0
  8  9  1  0
  9 10  1  0
  7 11  1  0
  2 12  1  0
 12 13  2  0
 13 14  1  0
 14 15  2  0
 15 16  1  0
 16 17  1  0
 16 18  1  0
 16 19  1  0
 15 20  1  0
 20 21  2  0
 10  5  1  0
 21 12  1  0
 11  5  1  0
  1 22  1  0
  1 23  1  0
  1 24  1  0
  2 25  1  0
  3 26  1  0
  4 27  1  0
  4 28  1  0
  6 29  1  0
  6 30  1  0
  7 31  1  0
  8 32  1  0
  8 33  1  0
  9 34  1  0
  9 35  1  0
 11 36  1  0
 11 37  1  0
 13 38  1  0
 14 39  1  0
 17 40  1  0
 17 41  1  0
 17 42  1  0
 18 43  1  0
 18 44  1  0
 18 45  1  0
 19 46  1  0
 19 47  1  0
 19 48  1  0
 21 49  1  0
M  END
>  <Energy>  (493) 
84.426991946400193

>  <compound_id>  (493) 
84625

>  <target_id>  (493) 
1

>  <reference_id>  (493) 
93

>  <inspiration_ids>  (493) 
[93, 98]

>  <energy_score>  (493) 
-41.53570886182868

>  <distance_score>  (493) 
2.6426800487847695

>  <path>  (493) 
/opt/xchem-fragalysis-2/maxwin/BulkDock/SCRATCH/511020/C84625-P93/C84625-P93.minimised.mol

>  <scratch_subdir>  (493) 
/opt/xchem-fragalysis-2/maxwin/BulkDock/SCRATCH/511020/C84625-P93

>  <fragmenstein_runtime>  (493) 
7.1078667640686035

>  <fragmenstein_outcome>  (493) 
too moved

>  <fragmenstein_mode>  (493) 
expansion

>  <fragmenstein_error>  (493) 


$$$$
C84625-P98
     RDKit          3D

 49 51  0  0  0  0  0  0  0  0999 V2000
   16.5429    1.8773   16.2848 C   0  0  0  0  0  0  0  0  0  0  0  0
   15.1969    1.1333   16.2875 C   0  0  0  0  0  0  0  0  0  0  0  0
   14.5146    1.4793   15.0496 N   0  0  0  0  0  0  0  0  0  0  0  0
   13.0658    1.3429   15.1207 C   0  0  0  0  0  0  0  0  0  0  0  0
   12.5965   -0.0943   14.9511 C   0  0  0  0  0  0  0  0  0  0  0  0
   11.2948   -0.2808   14.1033 C   0  0  0  0  0  0  0  0  0  0  0  0
   11.9103   -1.6843   13.7786 C   0  0  0  0  0  0  0  0  0  0  0  0
   11.6664   -2.6567   14.9376 C   0  0  0  0  0  0  0  0  0  0  0  0
   12.5250   -2.2330   16.1099 C   0  0  0  0  0  0  0  0  0  0  0  0
   12.4939   -0.7966   16.2328 O   0  0  0  0  0  0  0  0  0  0  0  0
   13.2622   -0.9346   13.7866 C   0  0  0  0  0  0  0  0  0  0  0  0
   15.4281   -0.3335   16.5499 C   0  0  0  0  0  0  0  0  0  0  0  0
   16.2021   -1.1563   15.7393 C   0  0  0  0  0  0  0  0  0  0  0  0
   16.5066   -2.4563   16.1469 C   0  0  0  0  0  0  0  0  0  0  0  0
   16.0270   -2.9327   17.3653 C   0  0  0  0  0  0  0  0  0  0  0  0
   16.4031   -4.3007   17.9340 C   0  0  0  0  0  0  0  0  0  0  0  0
   16.8784   -5.3020   16.8636 C   0  0  0  0  0  0  0  0  0  0  0  0
   17.5393   -4.1005   18.9549 C   0  0  0  0  0  0  0  0  0  0  0  0
   15.1886   -4.9174   18.6599 C   0  0  0  0  0  0  0  0  0  0  0  0
   15.2422   -2.1578   18.1465 N   0  0  0  0  0  0  0  0  0  0  0  0
   14.9598   -0.9026   17.7266 C   0  0  0  0  0  0  0  0  0  0  0  0
   17.0946    1.6922   17.2140 H   0  0  0  0  0  0  0  0  0  0  0  0
   17.1853    1.5704   15.4510 H   0  0  0  0  0  0  0  0  0  0  0  0
   16.3895    2.9600   16.2045 H   0  0  0  0  0  0  0  0  0  0  0  0
   14.6339    1.5611   17.1285 H   0  0  0  0  0  0  0  0  0  0  0  0
   14.9061    0.9650   14.2656 H   0  0  0  0  0  0  0  0  0  0  0  0
   12.6533    1.7923   16.0322 H   0  0  0  0  0  0  0  0  0  0  0  0
   12.6678    1.9489   14.2977 H   0  0  0  0  0  0  0  0  0  0  0  0
   10.3569   -0.2741   14.6667 H   0  0  0  0  0  0  0  0  0  0  0  0
   11.1903    0.3875   13.2396 H   0  0  0  0  0  0  0  0  0  0  0  0
   11.6859   -2.1297   12.8133 H   0  0  0  0  0  0  0  0  0  0  0  0
   10.6058   -2.6412   15.2065 H   0  0  0  0  0  0  0  0  0  0  0  0
   11.9079   -3.6733   14.6446 H   0  0  0  0  0  0  0  0  0  0  0  0
   13.5522   -2.5567   15.9381 H   0  0  0  0  0  0  0  0  0  0  0  0
   12.2021   -2.6980   17.0395 H   0  0  0  0  0  0  0  0  0  0  0  0
   13.4738   -0.3738   12.8667 H   0  0  0  0  0  0  0  0  0  0  0  0
   14.1349   -1.5472   14.0124 H   0  0  0  0  0  0  0  0  0  0  0  0
   16.6150   -0.7846   14.8056 H   0  0  0  0  0  0  0  0  0  0  0  0
   17.1388   -3.0633   15.5085 H   0  0  0  0  0  0  0  0  0  0  0  0
   16.1376   -5.4122   16.0642 H   0  0  0  0  0  0  0  0  0  0  0  0
   17.8234   -4.9913   16.4037 H   0  0  0  0  0  0  0  0  0  0  0  0
   17.0537   -6.2922   17.2999 H   0  0  0  0  0  0  0  0  0  0  0  0
   18.4258   -3.6603   18.4831 H   0  0  0  0  0  0  0  0  0  0  0  0
   17.8399   -5.0539   19.4045 H   0  0  0  0  0  0  0  0  0  0  0  0
   17.2371   -3.4315   19.7694 H   0  0  0  0  0  0  0  0  0  0  0  0
   15.4337   -5.9042   19.0684 H   0  0  0  0  0  0  0  0  0  0  0  0
   14.3360   -5.0295   17.9799 H   0  0  0  0  0  0  0  0  0  0  0  0
   14.8557   -4.3011   19.5034 H   0  0  0  0  0  0  0  0  0  0  0  0
   14.3461   -0.3339   18.4203 H   0  0  0  0  0  0  0  0  0  0  0  0
  1  2  1  0
  2  3  1  0
  3  4  1  0
  4  5  1  0
  5  6  1  0
  6  7  1  0
  7  8  1  0
  8  9  1  0
  9 10  1  0
  7 11  1  0
  2 12  1  0
 12 13  2  0
 13 14  1  0
 14 15  2  0
 15 16  1  0
 16 17  1  0
 16 18  1  0
 16 19  1  0
 15 20  1  0
 20 21  2  0
 10  5  1  0
 21 12  1  0
 11  5  1  0
  1 22  1  0
  1 23  1  0
  1 24  1  0
  2 25  1  0
  3 26  1  0
  4 27  1  0
  4 28  1  0
  6 29  1  0
  6 30  1  0
  7 31  1  0
  8 32  1  0
  8 33  1  0
  9 34  1  0
  9 35  1  0
 11 36  1  0
 11 37  1  0
 13 38  1  0
 14 39  1  0
 17 40  1  0
 17 41  1  0
 17 42  1  0
 18 43  1  0
 18 44  1  0
 18 45  1  0
 19 46  1  0
 19 47  1  0
 19 48  1  0
 21 49  1  0
M  END
>  <Energy>  (494) 
81.226997269137129

>  <compound_id>  (494) 
84625

>  <target_id>  (494) 
1

>  <reference_id>  (494) 
98

>  <inspiration_ids>  (494) 
[93, 98]

>  <energy_score>  (494) 
-44.735703539093265

>  <distance_score>  (494) 
2.760470819255762

>  <path>  (494) 
/opt/xchem-fragalysis-2/maxwin/BulkDock/SCRATCH/511020/C84625-P98/C84625-P98.minimised.mol

>  <scratch_subdir>  (494) 
/opt/xchem-fragalysis-2/maxwin/BulkDock/SCRATCH/511020/C84625-P98

>  <fragmenstein_runtime>  (494) 
7.015183448791504

>  <fragmenstein_outcome>  (494) 
too moved

>  <fragmenstein_mode>  (494) 
expansion

>  <fragmenstein_error>  (494) 


$$$$
C84626-P93
     RDKit          3D

 37 39  0  0  0  0  0  0  0  0999 V2000
   15.6996   -0.8221   13.2877 C   0  0  0  0  0  0  0  0  0  0  0  0
   14.6638   -0.4740   14.3677 C   0  0  0  0  0  0  0  0  0  0  0  0
   14.6842    0.9897   14.5512 N   0  0  0  0  0  0  0  0  0  0  0  0
   13.7666    1.5515   15.5507 C   0  0  0  0  0  0  0  0  0  0  0  0
   12.3335    1.0734   15.3796 C   0  0  0  0  0  0  0  0  0  0  0  0
   11.1709    2.0307   15.8215 C   0  0  0  0  0  0  0  0  0  0  0  0
   10.3403    1.2266   14.7690 C   0  0  0  0  0  0  0  0  0  0  0  0
    9.9217   -0.1674   15.2944 C   0  0  0  0  0  0  0  0  0  0  0  0
   11.1495   -1.0543   15.4078 C   0  0  0  0  0  0  0  0  0  0  0  0
   12.1947   -0.2620   15.9713 O   0  0  0  0  0  0  0  0  0  0  0  0
   11.6662    1.2328   13.9494 C   0  0  0  0  0  0  0  0  0  0  0  0
   14.9404   -1.2989   15.6057 C   0  0  0  0  0  0  0  0  0  0  0  0
   14.1993   -2.4517   15.8818 C   0  0  0  0  0  0  0  0  0  0  0  0
   14.3960   -3.2611   16.9562 N   0  0  0  0  0  0  0  0  0  0  0  0
   15.3814   -2.8994   17.8060 C   0  0  0  0  0  0  0  0  0  0  0  0
   16.1745   -1.7862   17.6155 C   0  0  0  0  0  0  0  0  0  0  0  0
   17.1461   -1.4832   18.4855 F   0  0  0  0  0  0  0  0  0  0  0  0
   15.9594   -0.9835   16.5061 C   0  0  0  0  0  0  0  0  0  0  0  0
   15.4854   -0.2884   12.3546 H   0  0  0  0  0  0  0  0  0  0  0  0
   16.7191   -0.5635   13.5975 H   0  0  0  0  0  0  0  0  0  0  0  0
   15.6852   -1.8953   13.0634 H   0  0  0  0  0  0  0  0  0  0  0  0
   13.6964   -0.7624   13.9468 H   0  0  0  0  0  0  0  0  0  0  0  0
   15.6323    1.2951   14.7609 H   0  0  0  0  0  0  0  0  0  0  0  0
   14.1216    1.3439   16.5667 H   0  0  0  0  0  0  0  0  0  0  0  0
   13.8040    2.6410   15.4347 H   0  0  0  0  0  0  0  0  0  0  0  0
   10.8180    1.9714   16.8498 H   0  0  0  0  0  0  0  0  0  0  0  0
   11.3206    3.0905   15.5786 H   0  0  0  0  0  0  0  0  0  0  0  0
    9.5185    1.7907   14.3323 H   0  0  0  0  0  0  0  0  0  0  0  0
    9.4413   -0.0318   16.2684 H   0  0  0  0  0  0  0  0  0  0  0  0
    9.1705   -0.6190   14.6445 H   0  0  0  0  0  0  0  0  0  0  0  0
   11.4709   -1.4280   14.4311 H   0  0  0  0  0  0  0  0  0  0  0  0
   10.9692   -1.9256   16.0378 H   0  0  0  0  0  0  0  0  0  0  0  0
   11.7944    0.4225   13.2283 H   0  0  0  0  0  0  0  0  0  0  0  0
   11.8876    2.1774   13.4360 H   0  0  0  0  0  0  0  0  0  0  0  0
   13.3960   -2.7734   15.2264 H   0  0  0  0  0  0  0  0  0  0  0  0
   15.5239   -3.5416   18.6680 H   0  0  0  0  0  0  0  0  0  0  0  0
   16.5942   -0.1163   16.3607 H   0  0  0  0  0  0  0  0  0  0  0  0
  1  2  1  0
  2  3  1  0
  3  4  1  0
  4  5  1  0
  5  6  1  0
  6  7  1  0
  7  8  1  0
  8  9  1  0
  9 10  1  0
  7 11  1  0
  2 12  1  0
 12 13  2  0
 13 14  1  0
 14 15  2  0
 15 16  1  0
 16 17  1  0
 16 18  2  0
 10  5  1  0
 18 12  1  0
 11  5  1  0
  1 19  1  0
  1 20  1  0
  1 21  1  0
  2 22  1  0
  3 23  1  0
  4 24  1  0
  4 25  1  0
  6 26  1  0
  6 27  1  0
  7 28  1  0
  8 29  1  0
  8 30  1  0
  9 31  1  0
  9 32  1  0
 11 33  1  0
 11 34  1  0
 13 35  1  0
 15 36  1  0
 18 37  1  0
M  END
>  <Energy>  (495) 
72.231304944454834

>  <compound_id>  (495) 
84626

>  <target_id>  (495) 
1

>  <reference_id>  (495) 
93

>  <inspiration_ids>  (495) 
[93, 98]

>  <energy_score>  (495) 
-23.58228868196801

>  <distance_score>  (495) 
2.266957206238462

>  <path>  (495) 
/opt/xchem-fragalysis-2/maxwin/BulkDock/SCRATCH/511020/C84626-P93/C84626-P93.minimised.mol

>  <scratch_subdir>  (495) 
/opt/xchem-fragalysis-2/maxwin/BulkDock/SCRATCH/511020/C84626-P93

>  <fragmenstein_runtime>  (495) 
1.5475685596466064

>  <fragmenstein_outcome>  (495) 
too moved

>  <fragmenstein_mode>  (495) 
expansion

>  <fragmenstein_error>  (495) 


$$$$
C84626-P98
     RDKit          3D

 37 39  0  0  0  0  0  0  0  0999 V2000
   14.1050    0.1570   12.7321 C   0  0  0  0  0  0  0  0  0  0  0  0
   13.3976   -0.2835   14.0212 C   0  0  0  0  0  0  0  0  0  0  0  0
   13.0324    0.8687   14.8770 N   0  0  0  0  0  0  0  0  0  0  0  0
   14.1431    1.6304   15.4779 C   0  0  0  0  0  0  0  0  0  0  0  0
   14.4201    1.2287   16.9292 C   0  0  0  0  0  0  0  0  0  0  0  0
   15.9163    1.4404   17.4011 C   0  0  0  0  0  0  0  0  0  0  0  0
   15.2804    1.4754   18.8276 C   0  0  0  0  0  0  0  0  0  0  0  0
   14.8868    0.0727   19.3558 C   0  0  0  0  0  0  0  0  0  0  0  0
   14.5934   -0.8384   18.1814 C   0  0  0  0  0  0  0  0  0  0  0  0
   13.8528   -0.0915   17.2174 O   0  0  0  0  0  0  0  0  0  0  0  0
   14.1054    2.2245   18.1036 C   0  0  0  0  0  0  0  0  0  0  0  0
   14.0663   -1.4323   14.7519 C   0  0  0  0  0  0  0  0  0  0  0  0
   13.3003   -2.3625   15.4651 C   0  0  0  0  0  0  0  0  0  0  0  0
   13.8157   -3.3659   16.2329 N   0  0  0  0  0  0  0  0  0  0  0  0
   15.1649   -3.4707   16.2676 C   0  0  0  0  0  0  0  0  0  0  0  0
   16.0051   -2.6159   15.5815 C   0  0  0  0  0  0  0  0  0  0  0  0
   17.3344   -2.7520   15.6664 F   0  0  0  0  0  0  0  0  0  0  0  0
   15.4556   -1.5880   14.8243 C   0  0  0  0  0  0  0  0  0  0  0  0
   14.2415   -0.6973   12.0588 H   0  0  0  0  0  0  0  0  0  0  0  0
   13.5042    0.9022   12.1982 H   0  0  0  0  0  0  0  0  0  0  0  0
   15.0923    0.5935   12.9091 H   0  0  0  0  0  0  0  0  0  0  0  0
   12.4352   -0.6832   13.6694 H   0  0  0  0  0  0  0  0  0  0  0  0
   12.4827    0.4966   15.6557 H   0  0  0  0  0  0  0  0  0  0  0  0
   15.0560    1.5421   14.8813 H   0  0  0  0  0  0  0  0  0  0  0  0
   13.8693    2.6911   15.4459 H   0  0  0  0  0  0  0  0  0  0  0  0
   16.6299    0.6395   17.1926 H   0  0  0  0  0  0  0  0  0  0  0  0
   16.3740    2.3852   17.0795 H   0  0  0  0  0  0  0  0  0  0  0  0
   15.8093    2.0748   19.5742 H   0  0  0  0  0  0  0  0  0  0  0  0
   14.0146    0.1688   20.0092 H   0  0  0  0  0  0  0  0  0  0  0  0
   15.6990   -0.3487   19.9579 H   0  0  0  0  0  0  0  0  0  0  0  0
   15.5381   -1.1620   17.7424 H   0  0  0  0  0  0  0  0  0  0  0  0
   14.0621   -1.7403   18.4816 H   0  0  0  0  0  0  0  0  0  0  0  0
   14.2947    3.2828   17.8855 H   0  0  0  0  0  0  0  0  0  0  0  0
   13.1244    2.1407   18.5726 H   0  0  0  0  0  0  0  0  0  0  0  0
   12.2143   -2.3101   15.4672 H   0  0  0  0  0  0  0  0  0  0  0  0
   15.5633   -4.2775   16.8716 H   0  0  0  0  0  0  0  0  0  0  0  0
   16.1299   -0.9068   14.3168 H   0  0  0  0  0  0  0  0  0  0  0  0
  1  2  1  0
  2  3  1  0
  3  4  1  0
  4  5  1  0
  5  6  1  0
  6  7  1  0
  7  8  1  0
  8  9  1  0
  9 10  1  0
  7 11  1  0
  2 12  1  0
 12 13  2  0
 13 14  1  0
 14 15  2  0
 15 16  1  0
 16 17  1  0
 16 18  2  0
 10  5  1  0
 18 12  1  0
 11  5  1  0
  1 19  1  0
  1 20  1  0
  1 21  1  0
  2 22  1  0
  3 23  1  0
  4 24  1  0
  4 25  1  0
  6 26  1  0
  6 27  1  0
  7 28  1  0
  8 29  1  0
  8 30  1  0
  9 31  1  0
  9 32  1  0
 11 33  1  0
 11 34  1  0
 13 35  1  0
 15 36  1  0
 18 37  1  0
M  END
>  <Energy>  (496) 
79.068347888953809

>  <compound_id>  (496) 
84626

>  <target_id>  (496) 
1

>  <reference_id>  (496) 
98

>  <inspiration_ids>  (496) 
[93, 98]

>  <energy_score>  (496) 
-16.74524573746939

>  <distance_score>  (496) 
2.7433181416838717

>  <path>  (496) 
/opt/xchem-fragalysis-2/maxwin/BulkDock/SCRATCH/511020/C84626-P98/C84626-P98.minimised.mol

>  <scratch_subdir>  (496) 
/opt/xchem-fragalysis-2/maxwin/BulkDock/SCRATCH/511020/C84626-P98

>  <fragmenstein_runtime>  (496) 
1.9414911270141602

>  <fragmenstein_outcome>  (496) 
too moved

>  <fragmenstein_mode>  (496) 
expansion

>  <fragmenstein_error>  (496) 


$$$$
C84627-P93
     RDKit          3D

 34 36  0  0  0  0  0  0  0  0999 V2000
   16.5228    0.6130   13.8942 C   0  0  0  0  0  0  0  0  0  0  0  0
   15.5133    0.6014   15.0526 C   0  0  0  0  0  0  0  0  0  0  0  0
   14.2186    1.0385   14.5354 N   0  0  0  0  0  0  0  0  0  0  0  0
   13.0826    0.9603   15.4519 C   0  0  0  0  0  0  0  0  0  0  0  0
   12.4298   -0.4084   15.4143 C   0  0  0  0  0  0  0  0  0  0  0  0
   10.8777   -0.6209   15.2627 C   0  0  0  0  0  0  0  0  0  0  0  0
   11.4199   -2.0731   14.9122 C   0  0  0  0  0  0  0  0  0  0  0  0
   12.2730   -2.5542   16.0804 C   0  0  0  0  0  0  0  0  0  0  0  0
   12.8352   -1.3031   16.4925 O   0  0  0  0  0  0  0  0  0  0  0  0
   12.4264   -1.2556   14.0550 C   0  0  0  0  0  0  0  0  0  0  0  0
   15.5667   -0.6985   15.8248 C   0  0  0  0  0  0  0  0  0  0  0  0
   15.6052   -1.9677   15.2498 C   0  0  0  0  0  0  0  0  0  0  0  0
   15.6974   -3.1328   15.9516 N   0  0  0  0  0  0  0  0  0  0  0  0
   15.7473   -3.0289   17.2975 C   0  0  0  0  0  0  0  0  0  0  0  0
   15.7074   -1.8238   17.9624 C   0  0  0  0  0  0  0  0  0  0  0  0
   15.7611   -1.7786   19.2992 F   0  0  0  0  0  0  0  0  0  0  0  0
   15.6172   -0.6538   17.2264 C   0  0  0  0  0  0  0  0  0  0  0  0
   17.5275    0.3527   14.2469 H   0  0  0  0  0  0  0  0  0  0  0  0
   16.5819    1.6089   13.4396 H   0  0  0  0  0  0  0  0  0  0  0  0
   16.2519   -0.0951   13.1028 H   0  0  0  0  0  0  0  0  0  0  0  0
   15.8531    1.3955   15.7321 H   0  0  0  0  0  0  0  0  0  0  0  0
   14.0070    0.5894   13.6484 H   0  0  0  0  0  0  0  0  0  0  0  0
   13.3461    1.2657   16.4708 H   0  0  0  0  0  0  0  0  0  0  0  0
   12.3537    1.7008   15.1021 H   0  0  0  0  0  0  0  0  0  0  0  0
   10.3759   -0.0639   14.4627 H   0  0  0  0  0  0  0  0  0  0  0  0
   10.2848   -0.5165   16.1667 H   0  0  0  0  0  0  0  0  0  0  0  0
   10.7734   -2.7975   14.4275 H   0  0  0  0  0  0  0  0  0  0  0  0
   13.0512   -3.2510   15.7642 H   0  0  0  0  0  0  0  0  0  0  0  0
   11.7008   -3.0092   16.8775 H   0  0  0  0  0  0  0  0  0  0  0  0
   12.0345   -0.7384   13.1752 H   0  0  0  0  0  0  0  0  0  0  0  0
   13.3372   -1.7809   13.7678 H   0  0  0  0  0  0  0  0  0  0  0  0
   15.5855   -2.1050   14.1723 H   0  0  0  0  0  0  0  0  0  0  0  0
   15.8188   -3.9616   17.8442 H   0  0  0  0  0  0  0  0  0  0  0  0
   15.5824    0.2927   17.7580 H   0  0  0  0  0  0  0  0  0  0  0  0
  1  2  1  0
  2  3  1  0
  3  4  1  0
  4  5  1  0
  5  6  1  0
  6  7  1  0
  7  8  1  0
  8  9  1  0
  7 10  1  0
  2 11  1  0
 11 12  2  0
 12 13  1  0
 13 14  2  0
 14 15  1  0
 15 16  1  0
 15 17  2  0
  9  5  1  0
 17 11  1  0
 10  5  1  0
  1 18  1  0
  1 19  1  0
  1 20  1  0
  2 21  1  0
  3 22  1  0
  4 23  1  0
  4 24  1  0
  6 25  1  0
  6 26  1  0
  7 27  1  0
  8 28  1  0
  8 29  1  0
 10 30  1  0
 10 31  1  0
 12 32  1  0
 14 33  1  0
 17 34  1  0
M  END
>  <Energy>  (497) 
88.891809514153266

>  <compound_id>  (497) 
84627

>  <target_id>  (497) 
1

>  <reference_id>  (497) 
93

>  <inspiration_ids>  (497) 
[93, 98]

>  <energy_score>  (497) 
-19.023013692450036

>  <distance_score>  (497) 
2.6116981076648784

>  <path>  (497) 
/opt/xchem-fragalysis-2/maxwin/BulkDock/SCRATCH/511020/C84627-P93/C84627-P93.minimised.mol

>  <scratch_subdir>  (497) 
/opt/xchem-fragalysis-2/maxwin/BulkDock/SCRATCH/511020/C84627-P93

>  <fragmenstein_runtime>  (497) 
1.546781301498413

>  <fragmenstein_outcome>  (497) 
too moved

>  <fragmenstein_mode>  (497) 
expansion

>  <fragmenstein_error>  (497) 


$$$$
C84627-P98
     RDKit          3D

 34 36  0  0  0  0  0  0  0  0999 V2000
   16.5224    0.6039   13.8802 C   0  0  0  0  0  0  0  0  0  0  0  0
   15.4978    0.6069   15.0246 C   0  0  0  0  0  0  0  0  0  0  0  0
   14.2069    1.0256   14.4685 N   0  0  0  0  0  0  0  0  0  0  0  0
   13.0752    0.9874   15.3948 C   0  0  0  0  0  0  0  0  0  0  0  0
   12.4063   -0.3700   15.3366 C   0  0  0  0  0  0  0  0  0  0  0  0
   10.8552   -0.5779   15.1768 C   0  0  0  0  0  0  0  0  0  0  0  0
   11.3984   -2.0227   14.7989 C   0  0  0  0  0  0  0  0  0  0  0  0
   12.2354   -2.5227   15.9716 C   0  0  0  0  0  0  0  0  0  0  0  0
   12.7974   -1.2799   16.4080 O   0  0  0  0  0  0  0  0  0  0  0  0
   12.4111   -1.1928   13.9592 C   0  0  0  0  0  0  0  0  0  0  0  0
   15.5403   -0.6864   15.8079 C   0  0  0  0  0  0  0  0  0  0  0  0
   15.5620   -1.9580   15.2380 C   0  0  0  0  0  0  0  0  0  0  0  0
   15.6460   -3.1212   15.9448 N   0  0  0  0  0  0  0  0  0  0  0  0
   15.6992   -3.0132   17.2901 C   0  0  0  0  0  0  0  0  0  0  0  0
   15.6745   -1.8046   17.9491 C   0  0  0  0  0  0  0  0  0  0  0  0
   15.7362   -1.7512   19.2853 F   0  0  0  0  0  0  0  0  0  0  0  0
   15.5951   -0.6363   17.2086 C   0  0  0  0  0  0  0  0  0  0  0  0
   17.5196    0.3337   14.2465 H   0  0  0  0  0  0  0  0  0  0  0  0
   16.5996    1.5969   13.4220 H   0  0  0  0  0  0  0  0  0  0  0  0
   16.2529   -0.1041   13.0881 H   0  0  0  0  0  0  0  0  0  0  0  0
   15.8220    1.4083   15.7038 H   0  0  0  0  0  0  0  0  0  0  0  0
   14.3102    1.9745   14.1099 H   0  0  0  0  0  0  0  0  0  0  0  0
   13.3447    1.2854   16.4141 H   0  0  0  0  0  0  0  0  0  0  0  0
   12.3542    1.7368   15.0458 H   0  0  0  0  0  0  0  0  0  0  0  0
   10.3561   -0.0038   14.3878 H   0  0  0  0  0  0  0  0  0  0  0  0
   10.2619   -0.4979   16.0855 H   0  0  0  0  0  0  0  0  0  0  0  0
   10.7538   -2.7353   14.2958 H   0  0  0  0  0  0  0  0  0  0  0  0
   13.0137   -3.2193   15.6575 H   0  0  0  0  0  0  0  0  0  0  0  0
   11.6472   -2.9840   16.7533 H   0  0  0  0  0  0  0  0  0  0  0  0
   13.3244   -1.7150   13.6731 H   0  0  0  0  0  0  0  0  0  0  0  0
   12.0211   -0.6749   13.0757 H   0  0  0  0  0  0  0  0  0  0  0  0
   15.5312   -2.0962   14.1607 H   0  0  0  0  0  0  0  0  0  0  0  0
   15.7609   -3.9448   17.8403 H   0  0  0  0  0  0  0  0  0  0  0  0
   15.5749    0.3111   17.7377 H   0  0  0  0  0  0  0  0  0  0  0  0
  1  2  1  0
  2  3  1  0
  3  4  1  0
  4  5  1  0
  5  6  1  0
  6  7  1  0
  7  8  1  0
  8  9  1  0
  7 10  1  0
  2 11  1  0
 11 12  2  0
 12 13  1  0
 13 14  2  0
 14 15  1  0
 15 16  1  0
 15 17  2  0
  9  5  1  0
 17 11  1  0
 10  5  1  0
  1 18  1  0
  1 19  1  0
  1 20  1  0
  2 21  1  0
  3 22  1  0
  4 23  1  0
  4 24  1  0
  6 25  1  0
  6 26  1  0
  7 27  1  0
  8 28  1  0
  8 29  1  0
 10 30  1  0
 10 31  1  0
 12 32  1  0
 14 33  1  0
 17 34  1  0
M  END
>  <Energy>  (498) 
87.292548846125328

>  <compound_id>  (498) 
84627

>  <target_id>  (498) 
1

>  <reference_id>  (498) 
98

>  <inspiration_ids>  (498) 
[93, 98]

>  <energy_score>  (498) 
-20.6222743604786

>  <distance_score>  (498) 
2.6136509418210947

>  <path>  (498) 
/opt/xchem-fragalysis-2/maxwin/BulkDock/SCRATCH/511020/C84627-P98/C84627-P98.minimised.mol

>  <scratch_subdir>  (498) 
/opt/xchem-fragalysis-2/maxwin/BulkDock/SCRATCH/511020/C84627-P98

>  <fragmenstein_runtime>  (498) 
1.7568118572235107

>  <fragmenstein_outcome>  (498) 
too moved

>  <fragmenstein_mode>  (498) 
expansion

>  <fragmenstein_error>  (498) 


$$$$
C74096-P93
     RDKit          3D

 46 49  0  0  0  0  0  0  0  0999 V2000
   12.8981   -3.3716   16.5555 C   0  0  0  0  0  0  0  0  0  0  0  0
   13.4805   -3.2287   17.8004 C   0  0  0  0  0  0  0  0  0  0  0  0
   14.0878   -2.0994   18.1972 N   0  0  0  0  0  0  0  0  0  0  0  0
   14.1793   -1.1092   17.2841 C   0  0  0  0  0  0  0  0  0  0  0  0
   13.7809   -1.2217   15.9588 C   0  0  0  0  0  0  0  0  0  0  0  0
   14.4847   -0.4091   14.8824 C   0  0  0  0  0  0  0  0  0  0  0  0
   16.0647   -0.5606   14.9976 C   0  0  0  0  0  0  0  0  0  0  0  0
   16.5003   -1.9295   15.5296 C   0  0  0  0  0  0  0  0  0  0  0  0
   16.1229   -3.0967   14.8708 C   0  0  0  0  0  0  0  0  0  0  0  0
   16.1668   -4.3049   15.5633 C   0  0  0  0  0  0  0  0  0  0  0  0
   16.5657   -4.4500   16.8380 N   0  0  0  0  0  0  0  0  0  0  0  0
   17.0219   -3.3249   17.4203 C   0  0  0  0  0  0  0  0  0  0  0  0
   17.0479   -2.0689   16.8106 C   0  0  0  0  0  0  0  0  0  0  0  0
   13.9584    0.9574   14.7149 N   0  0  0  0  0  0  0  0  0  0  0  0
   14.1169    1.8516   15.8697 C   0  0  0  0  0  0  0  0  0  0  0  0
   13.7971    3.3175   15.5492 C   0  0  0  0  0  0  0  0  0  0  0  0
   14.4620    3.9641   14.2748 C   0  0  0  0  0  0  0  0  0  0  0  0
   13.2146    4.8999   14.3004 C   0  0  0  0  0  0  0  0  0  0  0  0
   13.2857    5.9985   15.3661 C   0  0  0  0  0  0  0  0  0  0  0  0
   14.1025    5.5159   16.5693 C   0  0  0  0  0  0  0  0  0  0  0  0
   13.9653    4.1053   16.7696 O   0  0  0  0  0  0  0  0  0  0  0  0
   12.4432    3.6529   14.8295 C   0  0  0  0  0  0  0  0  0  0  0  0
   13.0317   -2.3470   15.6238 C   0  0  0  0  0  0  0  0  0  0  0  0
   12.3844   -4.2934   16.3038 H   0  0  0  0  0  0  0  0  0  0  0  0
   13.4279   -4.0192   18.5425 H   0  0  0  0  0  0  0  0  0  0  0  0
   14.7522   -0.2552   17.6361 H   0  0  0  0  0  0  0  0  0  0  0  0
   14.2432   -0.8990   13.9274 H   0  0  0  0  0  0  0  0  0  0  0  0
   16.5199   -0.3914   14.0138 H   0  0  0  0  0  0  0  0  0  0  0  0
   16.4756    0.2104   15.6590 H   0  0  0  0  0  0  0  0  0  0  0  0
   15.7496   -3.0639   13.8543 H   0  0  0  0  0  0  0  0  0  0  0  0
   15.8894   -5.2353   15.0896 H   0  0  0  0  0  0  0  0  0  0  0  0
   17.3590   -3.4411   18.4470 H   0  0  0  0  0  0  0  0  0  0  0  0
   17.3640   -1.2079   17.3905 H   0  0  0  0  0  0  0  0  0  0  0  0
   12.9645    0.8819   14.4953 H   0  0  0  0  0  0  0  0  0  0  0  0
   13.4523    1.5284   16.6787 H   0  0  0  0  0  0  0  0  0  0  0  0
   15.1445    1.8117   16.2444 H   0  0  0  0  0  0  0  0  0  0  0  0
   14.5219    3.3195   13.3899 H   0  0  0  0  0  0  0  0  0  0  0  0
   15.4352    4.4421   14.4157 H   0  0  0  0  0  0  0  0  0  0  0  0
   12.8748    5.2677   13.3278 H   0  0  0  0  0  0  0  0  0  0  0  0
   13.7357    6.9109   14.9600 H   0  0  0  0  0  0  0  0  0  0  0  0
   12.2697    6.2598   15.6853 H   0  0  0  0  0  0  0  0  0  0  0  0
   13.7933    6.0349   17.4817 H   0  0  0  0  0  0  0  0  0  0  0  0
   15.1670    5.7265   16.4176 H   0  0  0  0  0  0  0  0  0  0  0  0
   11.5891    3.8535   15.4829 H   0  0  0  0  0  0  0  0  0  0  0  0
   12.1255    2.9559   14.0459 H   0  0  0  0  0  0  0  0  0  0  0  0
   12.6662   -2.4977   14.6112 H   0  0  0  0  0  0  0  0  0  0  0  0
  1  2  2  0
  2  3  1  0
  3  4  2  0
  4  5  1  0
  5  6  1  0
  6  7  1  0
  7  8  1  0
  8  9  2  0
  9 10  1  0
 10 11  2  0
 11 12  1  0
 12 13  2  0
  6 14  1  0
 14 15  1  0
 15 16  1  0
 16 17  1  0
 17 18  1  0
 18 19  1  0
 19 20  1  0
 20 21  1  0
 18 22  1  0
  5 23  2  0
 23  1  1  0
 13  8  1  0
 21 16  1  0
 22 16  1  0
  1 24  1  0
  2 25  1  0
  4 26  1  0
  6 27  1  0
  7 28  1  0
  7 29  1  0
  9 30  1  0
 10 31  1  0
 12 32  1  0
 13 33  1  0
 14 34  1  0
 15 35  1  0
 15 36  1  0
 17 37  1  0
 17 38  1  0
 18 39  1  0
 19 40  1  0
 19 41  1  0
 20 42  1  0
 20 43  1  0
 22 44  1  0
 22 45  1  0
 23 46  1  0
M  END
>  <Energy>  (499) 
118.6554721269959

>  <compound_id>  (499) 
74096

>  <target_id>  (499) 
1

>  <reference_id>  (499) 
93

>  <inspiration_ids>  (499) 
[93, 98]

>  <energy_score>  (499) 
-13.236119378551535

>  <distance_score>  (499) 
2.7034444830092528

>  <path>  (499) 
/opt/xchem-fragalysis-2/maxwin/BulkDock/SCRATCH/511020/C74096-P93/C74096-P93.minimised.mol

>  <scratch_subdir>  (499) 
/opt/xchem-fragalysis-2/maxwin/BulkDock/SCRATCH/511020/C74096-P93

>  <fragmenstein_runtime>  (499) 
5.2492899894714355

>  <fragmenstein_outcome>  (499) 
too moved

>  <fragmenstein_mode>  (499) 
expansion

>  <fragmenstein_error>  (499) 


$$$$
C74096-P98
     RDKit          3D

 46 49  0  0  0  0  0  0  0  0999 V2000
   17.1899   -0.6417   16.9494 C   0  0  0  0  0  0  0  0  0  0  0  0
   16.7617   -1.1822   18.1515 C   0  0  0  0  0  0  0  0  0  0  0  0
   15.4685   -1.2619   18.5091 N   0  0  0  0  0  0  0  0  0  0  0  0
   14.5745   -0.7949   17.6130 C   0  0  0  0  0  0  0  0  0  0  0  0
   14.8879   -0.2767   16.3645 C   0  0  0  0  0  0  0  0  0  0  0  0
   13.7760   -0.0922   15.3561 C   0  0  0  0  0  0  0  0  0  0  0  0
   13.7738   -1.3371   14.4263 C   0  0  0  0  0  0  0  0  0  0  0  0
   13.7420   -2.6024   15.2674 C   0  0  0  0  0  0  0  0  0  0  0  0
   12.5467   -3.0856   15.7846 C   0  0  0  0  0  0  0  0  0  0  0  0
   12.6094   -4.1537   16.6665 C   0  0  0  0  0  0  0  0  0  0  0  0
   13.7437   -4.7635   17.0800 N   0  0  0  0  0  0  0  0  0  0  0  0
   14.8898   -4.2832   16.5676 C   0  0  0  0  0  0  0  0  0  0  0  0
   14.9383   -3.2372   15.6590 C   0  0  0  0  0  0  0  0  0  0  0  0
   13.8754    1.1881   14.6439 N   0  0  0  0  0  0  0  0  0  0  0  0
   13.5889    2.3085   15.5664 C   0  0  0  0  0  0  0  0  0  0  0  0
   13.9012    3.6846   14.9757 C   0  0  0  0  0  0  0  0  0  0  0  0
   15.3568    3.9239   14.4464 C   0  0  0  0  0  0  0  0  0  0  0  0
   14.6820    4.9851   13.5260 C   0  0  0  0  0  0  0  0  0  0  0  0
   14.4091    6.2836   14.2916 C   0  0  0  0  0  0  0  0  0  0  0  0
   13.3910    6.0351   15.4092 C   0  0  0  0  0  0  0  0  0  0  0  0
   13.4941    4.7086   15.9383 O   0  0  0  0  0  0  0  0  0  0  0  0
   13.4696    4.0049   13.4921 C   0  0  0  0  0  0  0  0  0  0  0  0
   16.2380   -0.1804   16.0439 C   0  0  0  0  0  0  0  0  0  0  0  0
   18.2477   -0.5934   16.7157 H   0  0  0  0  0  0  0  0  0  0  0  0
   17.4702   -1.5627   18.8812 H   0  0  0  0  0  0  0  0  0  0  0  0
   13.5464   -0.9180   17.8999 H   0  0  0  0  0  0  0  0  0  0  0  0
   12.8108   -0.0935   15.8844 H   0  0  0  0  0  0  0  0  0  0  0  0
   12.9025   -1.3145   13.7593 H   0  0  0  0  0  0  0  0  0  0  0  0
   14.6591   -1.3516   13.7770 H   0  0  0  0  0  0  0  0  0  0  0  0
   11.5896   -2.6560   15.5132 H   0  0  0  0  0  0  0  0  0  0  0  0
   11.6985   -4.5767   17.0634 H   0  0  0  0  0  0  0  0  0  0  0  0
   15.7987   -4.7687   16.9079 H   0  0  0  0  0  0  0  0  0  0  0  0
   15.9012   -2.9111   15.2801 H   0  0  0  0  0  0  0  0  0  0  0  0
   13.1873    1.2003   13.8918 H   0  0  0  0  0  0  0  0  0  0  0  0
   12.5276    2.2709   15.8433 H   0  0  0  0  0  0  0  0  0  0  0  0
   14.1666    2.2121   16.4929 H   0  0  0  0  0  0  0  0  0  0  0  0
   15.8141    3.0835   13.9112 H   0  0  0  0  0  0  0  0  0  0  0  0
   16.0772    4.3042   15.1765 H   0  0  0  0  0  0  0  0  0  0  0  0
   15.1892    5.1491   12.5708 H   0  0  0  0  0  0  0  0  0  0  0  0
   15.3477    6.6572   14.7180 H   0  0  0  0  0  0  0  0  0  0  0  0
   14.0330    7.0633   13.6204 H   0  0  0  0  0  0  0  0  0  0  0  0
   12.3706    6.1604   15.0300 H   0  0  0  0  0  0  0  0  0  0  0  0
   13.5266    6.7526   16.2243 H   0  0  0  0  0  0  0  0  0  0  0  0
   12.4820    4.4527   13.3524 H   0  0  0  0  0  0  0  0  0  0  0  0
   13.5797    3.1871   12.7705 H   0  0  0  0  0  0  0  0  0  0  0  0
   16.5488    0.2044   15.0760 H   0  0  0  0  0  0  0  0  0  0  0  0
  1  2  2  0
  2  3  1  0
  3  4  2  0
  4  5  1  0
  5  6  1  0
  6  7  1  0
  7  8  1  0
  8  9  2  0
  9 10  1  0
 10 11  2  0
 11 12  1  0
 12 13  2  0
  6 14  1  0
 14 15  1  0
 15 16  1  0
 16 17  1  0
 17 18  1  0
 18 19  1  0
 19 20  1  0
 20 21  1  0
 18 22  1  0
  5 23  2  0
 23  1  1  0
 13  8  1  0
 21 16  1  0
 22 16  1  0
  1 24  1  0
  2 25  1  0
  4 26  1  0
  6 27  1  0
  7 28  1  0
  7 29  1  0
  9 30  1  0
 10 31  1  0
 12 32  1  0
 13 33  1  0
 14 34  1  0
 15 35  1  0
 15 36  1  0
 17 37  1  0
 17 38  1  0
 18 39  1  0
 19 40  1  0
 19 41  1  0
 20 42  1  0
 20 43  1  0
 22 44  1  0
 22 45  1  0
 23 46  1  0
M  END
>  <Energy>  (500) 
104.56481197329042

>  <compound_id>  (500) 
74096

>  <target_id>  (500) 
1

>  <reference_id>  (500) 
98

>  <inspiration_ids>  (500) 
[93, 98]

>  <energy_score>  (500) 
-27.326779532256467

>  <distance_score>  (500) 
2.199570618457558

>  <path>  (500) 
/opt/xchem-fragalysis-2/maxwin/BulkDock/SCRATCH/511020/C74096-P98/C74096-P98.minimised.mol

>  <scratch_subdir>  (500) 
/opt/xchem-fragalysis-2/maxwin/BulkDock/SCRATCH/511020/C74096-P98

>  <fragmenstein_runtime>  (500) 
5.593246936798096

>  <fragmenstein_outcome>  (500) 
too moved

>  <fragmenstein_mode>  (500) 
expansion

>  <fragmenstein_error>  (500) 


$$$$
C74103-P93
     RDKit          3D

 49 52  0  0  0  0  0  0  0  0999 V2000
   16.5127   -2.7611   15.4317 C   0  0  0  0  0  0  0  0  0  0  0  0
   16.8654   -2.5559   16.7519 C   0  0  0  0  0  0  0  0  0  0  0  0
   16.4208   -1.5166   17.4780 N   0  0  0  0  0  0  0  0  0  0  0  0
   15.5906   -0.6484   16.8503 C   0  0  0  0  0  0  0  0  0  0  0  0
   15.1290   -0.7866   15.5459 C   0  0  0  0  0  0  0  0  0  0  0  0
   13.9264   -0.0147   15.0453 C   0  0  0  0  0  0  0  0  0  0  0  0
   12.7265   -0.2862   15.9855 C   0  0  0  0  0  0  0  0  0  0  0  0
   12.4369   -1.7540   16.0968 C   0  0  0  0  0  0  0  0  0  0  0  0
   11.5858   -2.3268   15.1795 C   0  0  0  0  0  0  0  0  0  0  0  0
   11.3470   -3.6620   15.3221 C   0  0  0  0  0  0  0  0  0  0  0  0
   11.9145   -4.4624   16.2533 N   0  0  0  0  0  0  0  0  0  0  0  0
   12.7734   -3.9032   17.1026 C   0  0  0  0  0  0  0  0  0  0  0  0
   13.0495   -2.5624   17.0666 C   0  0  0  0  0  0  0  0  0  0  0  0
   14.1477    1.4117   14.7817 N   0  0  0  0  0  0  0  0  0  0  0  0
   14.3342    2.2859   15.9355 C   0  0  0  0  0  0  0  0  0  0  0  0
   14.0911    3.7707   15.5951 C   0  0  0  0  0  0  0  0  0  0  0  0
   14.2803    4.6358   16.8670 C   0  0  0  0  0  0  0  0  0  0  0  0
   13.9358    6.0971   16.5647 C   0  0  0  0  0  0  0  0  0  0  0  0
   13.5620    6.2377   15.0888 C   0  0  0  0  0  0  0  0  0  0  0  0
   14.7121    5.7699   14.1938 C   0  0  0  0  0  0  0  0  0  0  0  0
   15.0609    4.3122   14.5184 C   0  0  0  0  0  0  0  0  0  0  0  0
   12.4120    5.4172   14.8316 O   0  0  0  0  0  0  0  0  0  0  0  0
   12.6552    4.0225   15.0867 C   0  0  0  0  0  0  0  0  0  0  0  0
   15.6326   -1.8690   14.8240 C   0  0  0  0  0  0  0  0  0  0  0  0
   16.8868   -3.6218   14.8861 H   0  0  0  0  0  0  0  0  0  0  0  0
   17.5345   -3.2377   17.2678 H   0  0  0  0  0  0  0  0  0  0  0  0
   15.2364    0.1461   17.5007 H   0  0  0  0  0  0  0  0  0  0  0  0
   13.6587   -0.4323   14.0644 H   0  0  0  0  0  0  0  0  0  0  0  0
   11.8350    0.2419   15.6210 H   0  0  0  0  0  0  0  0  0  0  0  0
   12.9064    0.0947   16.9955 H   0  0  0  0  0  0  0  0  0  0  0  0
   11.0991   -1.7538   14.4015 H   0  0  0  0  0  0  0  0  0  0  0  0
   10.6530   -4.1507   14.6608 H   0  0  0  0  0  0  0  0  0  0  0  0
   13.2132   -4.5547   17.8459 H   0  0  0  0  0  0  0  0  0  0  0  0
   13.7351   -2.1638   17.8043 H   0  0  0  0  0  0  0  0  0  0  0  0
   14.9404    1.5054   14.1451 H   0  0  0  0  0  0  0  0  0  0  0  0
   13.6498    2.0273   16.7486 H   0  0  0  0  0  0  0  0  0  0  0  0
   15.3543    2.1717   16.3200 H   0  0  0  0  0  0  0  0  0  0  0  0
   13.6398    4.2727   17.6809 H   0  0  0  0  0  0  0  0  0  0  0  0
   15.3132    4.5656   17.2305 H   0  0  0  0  0  0  0  0  0  0  0  0
   14.7817    6.7465   16.8163 H   0  0  0  0  0  0  0  0  0  0  0  0
   13.0897    6.4004   17.1928 H   0  0  0  0  0  0  0  0  0  0  0  0
   13.2950    7.2738   14.8584 H   0  0  0  0  0  0  0  0  0  0  0  0
   14.4116    5.8372   13.1413 H   0  0  0  0  0  0  0  0  0  0  0  0
   15.5930    6.4081   14.3255 H   0  0  0  0  0  0  0  0  0  0  0  0
   16.0988    4.2459   14.8675 H   0  0  0  0  0  0  0  0  0  0  0  0
   15.0044    3.7220   13.5962 H   0  0  0  0  0  0  0  0  0  0  0  0
   11.9115    3.6887   15.8194 H   0  0  0  0  0  0  0  0  0  0  0  0
   12.4559    3.4858   14.1527 H   0  0  0  0  0  0  0  0  0  0  0  0
   15.2966   -2.0700   13.8090 H   0  0  0  0  0  0  0  0  0  0  0  0
  1  2  2  0
  2  3  1  0
  3  4  2  0
  4  5  1  0
  5  6  1  0
  6  7  1  0
  7  8  1  0
  8  9  2  0
  9 10  1  0
 10 11  2  0
 11 12  1  0
 12 13  2  0
  6 14  1  0
 14 15  1  0
 15 16  1  0
 16 17  1  0
 17 18  1  0
 18 19  1  0
 19 20  1  0
 20 21  1  0
 19 22  1  0
 22 23  1  0
  5 24  2  0
 24  1  1  0
 13  8  1  0
 21 16  1  0
 23 16  1  0
  1 25  1  0
  2 26  1  0
  4 27  1  0
  6 28  1  0
  7 29  1  0
  7 30  1  0
  9 31  1  0
 10 32  1  0
 12 33  1  0
 13 34  1  0
 14 35  1  0
 15 36  1  0
 15 37  1  0
 17 38  1  0
 17 39  1  0
 18 40  1  0
 18 41  1  0
 19 42  1  0
 20 43  1  0
 20 44  1  0
 21 45  1  0
 21 46  1  0
 23 47  1  0
 23 48  1  0
 24 49  1  0
M  END
>  <Energy>  (501) 
91.161158351165241

>  <compound_id>  (501) 
74103

>  <target_id>  (501) 
1

>  <reference_id>  (501) 
93

>  <inspiration_ids>  (501) 
[93, 98]

>  <energy_score>  (501) 
-26.325803935373102

>  <distance_score>  (501) 
2.3204355651444235

>  <path>  (501) 
/opt/xchem-fragalysis-2/maxwin/BulkDock/SCRATCH/511020/C74103-P93/C74103-P93.minimised.mol

>  <scratch_subdir>  (501) 
/opt/xchem-fragalysis-2/maxwin/BulkDock/SCRATCH/511020/C74103-P93

>  <fragmenstein_runtime>  (501) 
5.294363737106323

>  <fragmenstein_outcome>  (501) 
too moved

>  <fragmenstein_mode>  (501) 
expansion

>  <fragmenstein_error>  (501) 


$$$$
C74103-P98
     RDKit          3D

 49 52  0  0  0  0  0  0  0  0999 V2000
   16.5541   -2.7218   15.4253 C   0  0  0  0  0  0  0  0  0  0  0  0
   16.8840   -2.5048   16.7494 C   0  0  0  0  0  0  0  0  0  0  0  0
   16.4303   -1.4564   17.4563 N   0  0  0  0  0  0  0  0  0  0  0  0
   15.6169   -0.5897   16.8025 C   0  0  0  0  0  0  0  0  0  0  0  0
   15.1731   -0.7402   15.4932 C   0  0  0  0  0  0  0  0  0  0  0  0
   13.9746    0.0221   14.9648 C   0  0  0  0  0  0  0  0  0  0  0  0
   12.7613   -0.2343   15.8905 C   0  0  0  0  0  0  0  0  0  0  0  0
   12.4630   -1.6966   16.0236 C   0  0  0  0  0  0  0  0  0  0  0  0
   11.5896   -2.2780   15.1317 C   0  0  0  0  0  0  0  0  0  0  0  0
   11.3491   -3.6078   15.3059 C   0  0  0  0  0  0  0  0  0  0  0  0
   11.9348   -4.3886   16.2433 N   0  0  0  0  0  0  0  0  0  0  0  0
   12.8135   -3.8270   17.0667 C   0  0  0  0  0  0  0  0  0  0  0  0
   13.0907   -2.4907   16.9978 C   0  0  0  0  0  0  0  0  0  0  0  0
   14.1915    1.4478   14.6758 N   0  0  0  0  0  0  0  0  0  0  0  0
   14.3447    2.3356   15.8274 C   0  0  0  0  0  0  0  0  0  0  0  0
   14.3260    3.8375   15.4651 C   0  0  0  0  0  0  0  0  0  0  0  0
   14.5874    4.6815   16.7397 C   0  0  0  0  0  0  0  0  0  0  0  0
   14.4955    6.1747   16.4111 C   0  0  0  0  0  0  0  0  0  0  0  0
   14.2004    6.3511   14.9214 C   0  0  0  0  0  0  0  0  0  0  0  0
   15.2949    5.7002   14.0724 C   0  0  0  0  0  0  0  0  0  0  0  0
   15.4134    4.2140   14.4310 C   0  0  0  0  0  0  0  0  0  0  0  0
   12.9472    5.7120   14.6323 O   0  0  0  0  0  0  0  0  0  0  0  0
   12.9690    4.3002   14.8947 C   0  0  0  0  0  0  0  0  0  0  0  0
   15.6871   -1.8328   14.7932 C   0  0  0  0  0  0  0  0  0  0  0  0
   16.9379   -3.5875   14.8950 H   0  0  0  0  0  0  0  0  0  0  0  0
   17.5416   -3.1833   17.2839 H   0  0  0  0  0  0  0  0  0  0  0  0
   15.2558    0.2114   17.4398 H   0  0  0  0  0  0  0  0  0  0  0  0
   13.7302   -0.4179   13.9873 H   0  0  0  0  0  0  0  0  0  0  0  0
   11.8761    0.2916   15.5080 H   0  0  0  0  0  0  0  0  0  0  0  0
   12.9362    0.1649   16.8938 H   0  0  0  0  0  0  0  0  0  0  0  0
   11.0888   -1.7209   14.3504 H   0  0  0  0  0  0  0  0  0  0  0  0
   10.6498   -4.1164   14.6651 H   0  0  0  0  0  0  0  0  0  0  0  0
   13.2613   -4.4708   17.8136 H   0  0  0  0  0  0  0  0  0  0  0  0
   13.7853   -2.0826   17.7213 H   0  0  0  0  0  0  0  0  0  0  0  0
   13.4245    1.7672   14.0869 H   0  0  0  0  0  0  0  0  0  0  0  0
   13.5519    2.1693   16.5635 H   0  0  0  0  0  0  0  0  0  0  0  0
   15.3028    2.1263   16.3136 H   0  0  0  0  0  0  0  0  0  0  0  0
   13.8580    4.4346   17.5216 H   0  0  0  0  0  0  0  0  0  0  0  0
   15.5770    4.4556   17.1564 H   0  0  0  0  0  0  0  0  0  0  0  0
   15.4264    6.6828   16.6867 H   0  0  0  0  0  0  0  0  0  0  0  0
   13.6890    6.6205   17.0055 H   0  0  0  0  0  0  0  0  0  0  0  0
   14.1030    7.4125   14.6727 H   0  0  0  0  0  0  0  0  0  0  0  0
   15.0394    5.7898   13.0097 H   0  0  0  0  0  0  0  0  0  0  0  0
   16.2566    6.2033   14.2229 H   0  0  0  0  0  0  0  0  0  0  0  0
   16.4132    4.0064   14.8322 H   0  0  0  0  0  0  0  0  0  0  0  0
   15.3159    3.6183   13.5155 H   0  0  0  0  0  0  0  0  0  0  0  0
   12.1520    4.0826   15.5920 H   0  0  0  0  0  0  0  0  0  0  0  0
   12.7321    3.7989   13.9506 H   0  0  0  0  0  0  0  0  0  0  0  0
   15.3723   -2.0394   13.7731 H   0  0  0  0  0  0  0  0  0  0  0  0
  1  2  2  0
  2  3  1  0
  3  4  2  0
  4  5  1  0
  5  6  1  0
  6  7  1  0
  7  8  1  0
  8  9  2  0
  9 10  1  0
 10 11  2  0
 11 12  1  0
 12 13  2  0
  6 14  1  0
 14 15  1  0
 15 16  1  0
 16 17  1  0
 17 18  1  0
 18 19  1  0
 19 20  1  0
 20 21  1  0
 19 22  1  0
 22 23  1  0
  5 24  2  0
 24  1  1  0
 13  8  1  0
 21 16  1  0
 23 16  1  0
  1 25  1  0
  2 26  1  0
  4 27  1  0
  6 28  1  0
  7 29  1  0
  7 30  1  0
  9 31  1  0
 10 32  1  0
 12 33  1  0
 13 34  1  0
 14 35  1  0
 15 36  1  0
 15 37  1  0
 17 38  1  0
 17 39  1  0
 18 40  1  0
 18 41  1  0
 19 42  1  0
 20 43  1  0
 20 44  1  0
 21 45  1  0
 21 46  1  0
 23 47  1  0
 23 48  1  0
 24 49  1  0
M  END
>  <Energy>  (502) 
94.708955936224925

>  <compound_id>  (502) 
74103

>  <target_id>  (502) 
1

>  <reference_id>  (502) 
98

>  <inspiration_ids>  (502) 
[93, 98]

>  <energy_score>  (502) 
-22.77800635031491

>  <distance_score>  (502) 
2.355347042336647

>  <path>  (502) 
/opt/xchem-fragalysis-2/maxwin/BulkDock/SCRATCH/511020/C74103-P98/C74103-P98.minimised.mol

>  <scratch_subdir>  (502) 
/opt/xchem-fragalysis-2/maxwin/BulkDock/SCRATCH/511020/C74103-P98

>  <fragmenstein_runtime>  (502) 
6.096731901168823

>  <fragmenstein_outcome>  (502) 
too moved

>  <fragmenstein_mode>  (502) 
expansion

>  <fragmenstein_error>  (502) 


$$$$
C63277-P93
     RDKit          3D

 24 24  0  0  0  0  0  0  0  0999 V2000
   13.6664    2.7938   16.5315 C   0  0  0  0  0  0  0  0  0  0  0  0
   13.9272    1.7140   15.4934 C   0  0  0  0  0  0  0  0  0  0  0  0
   13.3120    0.4489   15.8930 N   0  0  0  0  0  0  0  0  0  0  0  0
   13.5289   -0.6229   14.9115 C   0  0  0  0  0  0  0  0  0  0  0  0
   14.6667   -1.6281   15.1967 C   0  0  0  0  0  0  0  0  0  0  0  0
   16.0043   -1.0181   15.5750 C   0  0  0  0  0  0  0  0  0  0  0  0
   16.7845   -2.2081   16.1179 C   0  0  0  0  0  0  0  0  0  0  0  0
   15.7029   -3.1293   16.6186 C   0  0  0  0  0  0  0  0  0  0  0  0
   15.8870   -4.2038   17.1645 O   0  0  0  0  0  0  0  0  0  0  0  0
   14.4701   -2.5779   16.2722 N   0  0  0  0  0  0  0  0  0  0  0  0
   14.1150    3.7405   16.2139 H   0  0  0  0  0  0  0  0  0  0  0  0
   14.0988    2.5227   17.5006 H   0  0  0  0  0  0  0  0  0  0  0  0
   12.5924    2.9582   16.6698 H   0  0  0  0  0  0  0  0  0  0  0  0
   15.0076    1.6049   15.3575 H   0  0  0  0  0  0  0  0  0  0  0  0
   13.5037    2.0462   14.5383 H   0  0  0  0  0  0  0  0  0  0  0  0
   13.6637    0.1528   16.8047 H   0  0  0  0  0  0  0  0  0  0  0  0
   13.6756   -0.1966   13.9107 H   0  0  0  0  0  0  0  0  0  0  0  0
   12.5930   -1.1928   14.8564 H   0  0  0  0  0  0  0  0  0  0  0  0
   14.7985   -2.2309   14.2875 H   0  0  0  0  0  0  0  0  0  0  0  0
   15.9059   -0.2792   16.3784 H   0  0  0  0  0  0  0  0  0  0  0  0
   16.5085   -0.5389   14.7306 H   0  0  0  0  0  0  0  0  0  0  0  0
   17.3377   -2.7150   15.3212 H   0  0  0  0  0  0  0  0  0  0  0  0
   17.4611   -1.9206   16.9260 H   0  0  0  0  0  0  0  0  0  0  0  0
   13.6807   -3.2147   16.3086 H   0  0  0  0  0  0  0  0  0  0  0  0
  1  2  1  0
  2  3  1  0
  3  4  1  0
  4  5  1  0
  5  6  1  0
  6  7  1  0
  7  8  1  0
  8  9  2  0
  8 10  1  0
 10  5  1  0
  1 11  1  0
  1 12  1  0
  1 13  1  0
  2 14  1  0
  2 15  1  0
  3 16  1  0
  4 17  1  0
  4 18  1  0
  5 19  1  0
  6 20  1  0
  6 21  1  0
  7 22  1  0
  7 23  1  0
 10 24  1  0
M  END
>  <Energy>  (503) 
-1.0555257011318098

>  <compound_id>  (503) 
63277

>  <target_id>  (503) 
1

>  <reference_id>  (503) 
93

>  <inspiration_ids>  (503) 
[93, 98]

>  <energy_score>  (503) 
-38.02461103946507

>  <distance_score>  (503) 
2.08830598987303

>  <path>  (503) 
/opt/xchem-fragalysis-2/maxwin/BulkDock/SCRATCH/511020/C63277-P93/C63277-P93.minimised.mol

>  <scratch_subdir>  (503) 
/opt/xchem-fragalysis-2/maxwin/BulkDock/SCRATCH/511020/C63277-P93

>  <fragmenstein_runtime>  (503) 
0.5592443943023682

>  <fragmenstein_outcome>  (503) 
too moved

>  <fragmenstein_mode>  (503) 
expansion

>  <fragmenstein_error>  (503) 


$$$$
C63277-P98
     RDKit          3D

 24 24  0  0  0  0  0  0  0  0999 V2000
   13.7721    2.8472   16.4992 C   0  0  0  0  0  0  0  0  0  0  0  0
   13.9008    1.7347   15.4709 C   0  0  0  0  0  0  0  0  0  0  0  0
   13.3629    0.4820   15.9954 N   0  0  0  0  0  0  0  0  0  0  0  0
   13.4536   -0.6244   15.0328 C   0  0  0  0  0  0  0  0  0  0  0  0
   14.6002   -1.6372   15.2389 C   0  0  0  0  0  0  0  0  0  0  0  0
   15.9842   -1.0287   15.3712 C   0  0  0  0  0  0  0  0  0  0  0  0
   16.8170   -2.1808   15.9147 C   0  0  0  0  0  0  0  0  0  0  0  0
   15.8081   -3.0161   16.6570 C   0  0  0  0  0  0  0  0  0  0  0  0
   16.0666   -4.0160   17.3038 O   0  0  0  0  0  0  0  0  0  0  0  0
   14.5426   -2.4848   16.4122 N   0  0  0  0  0  0  0  0  0  0  0  0
   14.1601    3.7861   16.0915 H   0  0  0  0  0  0  0  0  0  0  0  0
   14.3380    2.6135   17.4073 H   0  0  0  0  0  0  0  0  0  0  0  0
   12.7254    3.0075   16.7795 H   0  0  0  0  0  0  0  0  0  0  0  0
   14.9536    1.6283   15.1907 H   0  0  0  0  0  0  0  0  0  0  0  0
   13.3454    2.0300   14.5730 H   0  0  0  0  0  0  0  0  0  0  0  0
   13.8392    0.2177   16.8593 H   0  0  0  0  0  0  0  0  0  0  0  0
   13.4978   -0.2390   14.0062 H   0  0  0  0  0  0  0  0  0  0  0  0
   12.5094   -1.1786   15.1036 H   0  0  0  0  0  0  0  0  0  0  0  0
   14.5943   -2.3136   14.3751 H   0  0  0  0  0  0  0  0  0  0  0  0
   16.0071   -0.2153   16.1052 H   0  0  0  0  0  0  0  0  0  0  0  0
   16.3724   -0.6427   14.4240 H   0  0  0  0  0  0  0  0  0  0  0  0
   17.2416   -2.7802   15.1033 H   0  0  0  0  0  0  0  0  0  0  0  0
   17.6082   -1.8338   16.5835 H   0  0  0  0  0  0  0  0  0  0  0  0
   13.7633   -3.1032   16.6178 H   0  0  0  0  0  0  0  0  0  0  0  0
  1  2  1  0
  2  3  1  0
  3  4  1  0
  4  5  1  0
  5  6  1  0
  6  7  1  0
  7  8  1  0
  8  9  2  0
  8 10  1  0
 10  5  1  0
  1 11  1  0
  1 12  1  0
  1 13  1  0
  2 14  1  0
  2 15  1  0
  3 16  1  0
  4 17  1  0
  4 18  1  0
  5 19  1  0
  6 20  1  0
  6 21  1  0
  7 22  1  0
  7 23  1  0
 10 24  1  0
M  END
>  <Energy>  (504) 
-1.7006893559087857

>  <compound_id>  (504) 
63277

>  <target_id>  (504) 
1

>  <reference_id>  (504) 
98

>  <inspiration_ids>  (504) 
[93, 98]

>  <energy_score>  (504) 
-38.669774694242534

>  <distance_score>  (504) 
2.0940699875649273

>  <path>  (504) 
/opt/xchem-fragalysis-2/maxwin/BulkDock/SCRATCH/511020/C63277-P98/C63277-P98.minimised.mol

>  <scratch_subdir>  (504) 
/opt/xchem-fragalysis-2/maxwin/BulkDock/SCRATCH/511020/C63277-P98

>  <fragmenstein_runtime>  (504) 
0.5747268199920654

>  <fragmenstein_outcome>  (504) 
too moved

>  <fragmenstein_mode>  (504) 
expansion

>  <fragmenstein_error>  (504) 


$$$$
C63278-P93
     RDKit          3D

 24 24  0  0  0  0  0  0  0  0999 V2000
   12.5679   -1.2142   14.1749 C   0  0  0  0  0  0  0  0  0  0  0  0
   12.1188   -2.1586   15.2807 C   0  0  0  0  0  0  0  0  0  0  0  0
   13.1363   -3.1192   15.7219 N   0  0  0  0  0  0  0  0  0  0  0  0
   12.6049   -4.0366   16.7179 C   0  0  0  0  0  0  0  0  0  0  0  0
   14.4738   -2.5721   16.0230 C   0  0  0  0  0  0  0  0  0  0  0  0
   14.5318   -1.4696   17.0898 C   0  0  0  0  0  0  0  0  0  0  0  0
   14.9373   -2.1808   18.3631 C   0  0  0  0  0  0  0  0  0  0  0  0
   15.7390   -3.2665   17.9142 N   0  0  0  0  0  0  0  0  0  0  0  0
   15.4497   -3.6173   16.6099 C   0  0  0  0  0  0  0  0  0  0  0  0
   15.8902   -4.6283   16.0873 O   0  0  0  0  0  0  0  0  0  0  0  0
   13.3499   -0.5285   14.5145 H   0  0  0  0  0  0  0  0  0  0  0  0
   11.7244   -0.6028   13.8385 H   0  0  0  0  0  0  0  0  0  0  0  0
   12.9448   -1.7718   13.3113 H   0  0  0  0  0  0  0  0  0  0  0  0
   11.2541   -2.7156   14.8979 H   0  0  0  0  0  0  0  0  0  0  0  0
   11.7561   -1.5625   16.1253 H   0  0  0  0  0  0  0  0  0  0  0  0
   13.2405   -4.9159   16.8319 H   0  0  0  0  0  0  0  0  0  0  0  0
   12.4947   -3.5607   17.6917 H   0  0  0  0  0  0  0  0  0  0  0  0
   11.6280   -4.4209   16.4124 H   0  0  0  0  0  0  0  0  0  0  0  0
   14.9308   -2.2065   15.0958 H   0  0  0  0  0  0  0  0  0  0  0  0
   13.6134   -0.8907   17.2125 H   0  0  0  0  0  0  0  0  0  0  0  0
   15.3154   -0.7530   16.8088 H   0  0  0  0  0  0  0  0  0  0  0  0
   14.0917   -2.5964   18.9134 H   0  0  0  0  0  0  0  0  0  0  0  0
   15.5191   -1.5423   19.0330 H   0  0  0  0  0  0  0  0  0  0  0  0
   16.2565   -3.9068   18.5034 H   0  0  0  0  0  0  0  0  0  0  0  0
  1  2  1  0
  2  3  1  0
  3  4  1  0
  3  5  1  0
  5  6  1  0
  6  7  1  0
  7  8  1  0
  8  9  1  0
  9 10  2  0
  9  5  1  0
  1 11  1  0
  1 12  1  0
  1 13  1  0
  2 14  1  0
  2 15  1  0
  4 16  1  0
  4 17  1  0
  4 18  1  0
  5 19  1  0
  6 20  1  0
  6 21  1  0
  7 22  1  0
  7 23  1  0
  8 24  1  0
M  END
>  <Energy>  (505) 
28.78029461219927

>  <compound_id>  (505) 
63278

>  <target_id>  (505) 
1

>  <reference_id>  (505) 
93

>  <inspiration_ids>  (505) 
[93, 98]

>  <energy_score>  (505) 
-25.114867927619287

>  <distance_score>  (505) 
1.3203453070644204

>  <path>  (505) 
/opt/xchem-fragalysis-2/maxwin/BulkDock/SCRATCH/511020/C63278-P93/C63278-P93.minimised.mol

>  <scratch_subdir>  (505) 
/opt/xchem-fragalysis-2/maxwin/BulkDock/SCRATCH/511020/C63278-P93

>  <fragmenstein_runtime>  (505) 
0.9076871871948242

>  <fragmenstein_outcome>  (505) 
too moved

>  <fragmenstein_mode>  (505) 
expansion

>  <fragmenstein_error>  (505) 


$$$$
C63278-P98
     RDKit          3D

 24 24  0  0  0  0  0  0  0  0999 V2000
   12.5173   -1.2254   14.1430 C   0  0  0  0  0  0  0  0  0  0  0  0
   12.1244   -2.1473   15.2890 C   0  0  0  0  0  0  0  0  0  0  0  0
   13.1806   -3.0656   15.7299 N   0  0  0  0  0  0  0  0  0  0  0  0
   12.6983   -3.9775   16.7575 C   0  0  0  0  0  0  0  0  0  0  0  0
   14.4989   -2.4609   16.0062 C   0  0  0  0  0  0  0  0  0  0  0  0
   14.5370   -1.3635   17.0781 C   0  0  0  0  0  0  0  0  0  0  0  0
   14.9867   -2.0666   18.3421 C   0  0  0  0  0  0  0  0  0  0  0  0
   15.8106   -3.1279   17.8736 N   0  0  0  0  0  0  0  0  0  0  0  0
   15.5233   -3.4700   16.5672 C   0  0  0  0  0  0  0  0  0  0  0  0
   15.9977   -4.4500   16.0174 O   0  0  0  0  0  0  0  0  0  0  0  0
   13.2913   -0.5112   14.4394 H   0  0  0  0  0  0  0  0  0  0  0  0
   11.6492   -0.6446   13.8153 H   0  0  0  0  0  0  0  0  0  0  0  0
   12.8810   -1.7984   13.2836 H   0  0  0  0  0  0  0  0  0  0  0  0
   11.2653   -2.7382   14.9460 H   0  0  0  0  0  0  0  0  0  0  0  0
   11.7678   -1.5353   16.1246 H   0  0  0  0  0  0  0  0  0  0  0  0
   13.3696   -4.8306   16.8894 H   0  0  0  0  0  0  0  0  0  0  0  0
   12.5813   -3.4794   17.7188 H   0  0  0  0  0  0  0  0  0  0  0  0
   11.7320   -4.4035   16.4748 H   0  0  0  0  0  0  0  0  0  0  0  0
   14.9236   -2.0745   15.0722 H   0  0  0  0  0  0  0  0  0  0  0  0
   13.6025   -0.8148   17.2152 H   0  0  0  0  0  0  0  0  0  0  0  0
   15.2926   -0.6203   16.7892 H   0  0  0  0  0  0  0  0  0  0  0  0
   14.1653   -2.5038   18.9118 H   0  0  0  0  0  0  0  0  0  0  0  0
   15.5653   -1.4128   19.0001 H   0  0  0  0  0  0  0  0  0  0  0  0
   16.3576   -3.7564   18.4488 H   0  0  0  0  0  0  0  0  0  0  0  0
  1  2  1  0
  2  3  1  0
  3  4  1  0
  3  5  1  0
  5  6  1  0
  6  7  1  0
  7  8  1  0
  8  9  1  0
  9 10  2  0
  9  5  1  0
  1 11  1  0
  1 12  1  0
  1 13  1  0
  2 14  1  0
  2 15  1  0
  4 16  1  0
  4 17  1  0
  4 18  1  0
  5 19  1  0
  6 20  1  0
  6 21  1  0
  7 22  1  0
  7 23  1  0
  8 24  1  0
M  END
>  <Energy>  (506) 
28.584360986753715

>  <compound_id>  (506) 
63278

>  <target_id>  (506) 
1

>  <reference_id>  (506) 
98

>  <inspiration_ids>  (506) 
[93, 98]

>  <energy_score>  (506) 
-25.310801553064636

>  <distance_score>  (506) 
1.3613910472803563

>  <path>  (506) 
/opt/xchem-fragalysis-2/maxwin/BulkDock/SCRATCH/511020/C63278-P98/C63278-P98.minimised.mol

>  <scratch_subdir>  (506) 
/opt/xchem-fragalysis-2/maxwin/BulkDock/SCRATCH/511020/C63278-P98

>  <fragmenstein_runtime>  (506) 
0.9601850509643555

>  <fragmenstein_outcome>  (506) 
too moved

>  <fragmenstein_mode>  (506) 
expansion

>  <fragmenstein_error>  (506) 


$$$$
C63280-P93
     RDKit          3D

 21 21  0  0  0  0  0  0  0  0999 V2000
   11.6841   -2.8341   13.7346 C   0  0  0  0  0  0  0  0  0  0  0  0
   12.7462   -2.5872   14.6659 N   0  0  0  0  0  0  0  0  0  0  0  0
   12.3751   -1.4971   15.5456 C   0  0  0  0  0  0  0  0  0  0  0  0
   13.5628   -1.1414   16.4104 C   0  0  0  0  0  0  0  0  0  0  0  0
   14.2357   -2.3344   17.0032 C   0  0  0  0  0  0  0  0  0  0  0  0
   15.5171   -2.5050   16.9449 N   0  0  0  0  0  0  0  0  0  0  0  0
   15.7406   -3.7944   17.6378 C   0  0  0  0  0  0  0  0  0  0  0  0
   14.3805   -4.1938   18.1218 C   0  0  0  0  0  0  0  0  0  0  0  0
   14.0938   -5.1583   18.8080 O   0  0  0  0  0  0  0  0  0  0  0  0
   13.5307   -3.2655   17.6515 N   0  0  0  0  0  0  0  0  0  0  0  0
   11.8720   -3.7088   13.1173 H   0  0  0  0  0  0  0  0  0  0  0  0
   10.7474   -3.0009   14.2707 H   0  0  0  0  0  0  0  0  0  0  0  0
   11.6416   -1.9700   13.0780 H   0  0  0  0  0  0  0  0  0  0  0  0
   13.5896   -2.3371   14.1431 H   0  0  0  0  0  0  0  0  0  0  0  0
   11.5327   -1.8000   16.1744 H   0  0  0  0  0  0  0  0  0  0  0  0
   12.0663   -0.6065   14.9846 H   0  0  0  0  0  0  0  0  0  0  0  0
   14.3029   -0.5909   15.8155 H   0  0  0  0  0  0  0  0  0  0  0  0
   13.2523   -0.4778   17.2237 H   0  0  0  0  0  0  0  0  0  0  0  0
   16.1338   -4.5374   16.9395 H   0  0  0  0  0  0  0  0  0  0  0  0
   16.4160   -3.6538   18.4856 H   0  0  0  0  0  0  0  0  0  0  0  0
   12.5359   -3.3358   17.7798 H   0  0  0  0  0  0  0  0  0  0  0  0
  1  2  1  0
  2  3  1  0
  3  4  1  0
  4  5  1  0
  5  6  2  0
  6  7  1  0
  7  8  1  0
  8  9  2  0
  8 10  1  0
 10  5  1  0
  1 11  1  0
  1 12  1  0
  1 13  1  0
  2 14  1  0
  3 15  1  0
  3 16  1  0
  4 17  1  0
  4 18  1  0
  7 19  1  0
  7 20  1  0
 10 21  1  0
M  END
>  <Energy>  (507) 
1.2189030867513591

>  <compound_id>  (507) 
63280

>  <target_id>  (507) 
1

>  <reference_id>  (507) 
93

>  <inspiration_ids>  (507) 
[93, 98]

>  <energy_score>  (507) 
-11.768124637592365

>  <distance_score>  (507) 
1.904219075497564

>  <path>  (507) 
/opt/xchem-fragalysis-2/maxwin/BulkDock/SCRATCH/511020/C63280-P93/C63280-P93.minimised.mol

>  <scratch_subdir>  (507) 
/opt/xchem-fragalysis-2/maxwin/BulkDock/SCRATCH/511020/C63280-P93

>  <fragmenstein_runtime>  (507) 
1.5551645755767822

>  <fragmenstein_outcome>  (507) 
too moved

>  <fragmenstein_mode>  (507) 
expansion

>  <fragmenstein_error>  (507) 


$$$$
C63280-P98
     RDKit          3D

 21 21  0  0  0  0  0  0  0  0999 V2000
   11.2656   -3.1547   15.1573 C   0  0  0  0  0  0  0  0  0  0  0  0
   11.9815   -2.5234   14.0605 N   0  0  0  0  0  0  0  0  0  0  0  0
   12.7901   -1.4100   14.5568 C   0  0  0  0  0  0  0  0  0  0  0  0
   14.1968   -1.8217   14.9902 C   0  0  0  0  0  0  0  0  0  0  0  0
   14.2334   -2.5947   16.2652 C   0  0  0  0  0  0  0  0  0  0  0  0
   13.6611   -2.1875   17.3518 N   0  0  0  0  0  0  0  0  0  0  0  0
   13.8837   -3.2925   18.3184 C   0  0  0  0  0  0  0  0  0  0  0  0
   14.6246   -4.3247   17.5311 C   0  0  0  0  0  0  0  0  0  0  0  0
   14.8912   -5.4577   17.8878 O   0  0  0  0  0  0  0  0  0  0  0  0
   14.8907   -3.7595   16.3329 N   0  0  0  0  0  0  0  0  0  0  0  0
   11.9222   -3.6688   15.8595 H   0  0  0  0  0  0  0  0  0  0  0  0
   10.6582   -2.4202   15.6902 H   0  0  0  0  0  0  0  0  0  0  0  0
   10.6003   -3.9112   14.7551 H   0  0  0  0  0  0  0  0  0  0  0  0
   11.2613   -2.1429   13.4308 H   0  0  0  0  0  0  0  0  0  0  0  0
   12.2736   -0.8470   15.3445 H   0  0  0  0  0  0  0  0  0  0  0  0
   12.9097   -0.7078   13.7219 H   0  0  0  0  0  0  0  0  0  0  0  0
   14.7100   -2.3648   14.1906 H   0  0  0  0  0  0  0  0  0  0  0  0
   14.7825   -0.9095   15.1628 H   0  0  0  0  0  0  0  0  0  0  0  0
   14.4875   -2.9476   19.1616 H   0  0  0  0  0  0  0  0  0  0  0  0
   12.9361   -3.7084   18.6550 H   0  0  0  0  0  0  0  0  0  0  0  0
   15.3180   -4.2675   15.5749 H   0  0  0  0  0  0  0  0  0  0  0  0
  1  2  1  0
  2  3  1  0
  3  4  1  0
  4  5  1  0
  5  6  2  0
  6  7  1  0
  7  8  1  0
  8  9  2  0
  8 10  1  0
 10  5  1  0
  1 11  1  0
  1 12  1  0
  1 13  1  0
  2 14  1  0
  3 15  1  0
  3 16  1  0
  4 17  1  0
  4 18  1  0
  7 19  1  0
  7 20  1  0
 10 21  1  0
M  END
>  <Energy>  (508) 
0.72791215855055391

>  <compound_id>  (508) 
63280

>  <target_id>  (508) 
1

>  <reference_id>  (508) 
98

>  <inspiration_ids>  (508) 
[93, 98]

>  <energy_score>  (508) 
-12.259115565792541

>  <distance_score>  (508) 
1.3836087716873267

>  <path>  (508) 
/opt/xchem-fragalysis-2/maxwin/BulkDock/SCRATCH/511020/C63280-P98/C63280-P98.minimised.mol

>  <scratch_subdir>  (508) 
/opt/xchem-fragalysis-2/maxwin/BulkDock/SCRATCH/511020/C63280-P98

>  <fragmenstein_runtime>  (508) 
1.6418726444244385

>  <fragmenstein_outcome>  (508) 
too moved

>  <fragmenstein_mode>  (508) 
expansion

>  <fragmenstein_error>  (508) 


$$$$
C63281-P93
     RDKit          3D

 29 29  0  0  0  0  0  0  0  0999 V2000
   10.8851   -1.6859   15.1353 C   0  0  0  0  0  0  0  0  0  0  0  0
   12.1394   -2.3807   15.2705 N   0  0  0  0  0  0  0  0  0  0  0  0
   12.1883   -3.3332   16.3492 C   0  0  0  0  0  0  0  0  0  0  0  0
   13.4832   -4.1214   16.6686 C   0  0  0  0  0  0  0  0  0  0  0  0
   14.7714   -3.4763   16.9223 N   0  0  0  0  0  0  0  0  0  0  0  0
   14.8941   -2.6448   18.1017 C   0  0  0  0  0  0  0  0  0  0  0  0
   15.3579   -1.2024   17.8860 C   0  0  0  0  0  0  0  0  0  0  0  0
   14.4759   -0.4405   16.9145 C   0  0  0  0  0  0  0  0  0  0  0  0
   14.7176   -0.6894   15.5119 N   0  0  0  0  0  0  0  0  0  0  0  0
   14.7995   -1.9426   14.9667 C   0  0  0  0  0  0  0  0  0  0  0  0
   14.3319   -2.1252   13.8404 O   0  0  0  0  0  0  0  0  0  0  0  0
   15.5015   -3.0416   15.7427 C   0  0  0  0  0  0  0  0  0  0  0  0
   10.6611   -1.0937   16.0230 H   0  0  0  0  0  0  0  0  0  0  0  0
   10.0594   -2.3715   14.9385 H   0  0  0  0  0  0  0  0  0  0  0  0
   10.9679   -0.9648   14.3182 H   0  0  0  0  0  0  0  0  0  0  0  0
   12.4286   -2.7914   14.3781 H   0  0  0  0  0  0  0  0  0  0  0  0
   11.3870   -4.0669   16.2287 H   0  0  0  0  0  0  0  0  0  0  0  0
   12.0073   -2.7690   17.2557 H   0  0  0  0  0  0  0  0  0  0  0  0
   13.6304   -4.8851   15.9109 H   0  0  0  0  0  0  0  0  0  0  0  0
   13.2520   -4.7007   17.5724 H   0  0  0  0  0  0  0  0  0  0  0  0
   15.6238   -3.1252   18.7660 H   0  0  0  0  0  0  0  0  0  0  0  0
   13.9605   -2.6429   18.6717 H   0  0  0  0  0  0  0  0  0  0  0  0
   15.3141   -0.6980   18.8599 H   0  0  0  0  0  0  0  0  0  0  0  0
   16.4079   -1.1639   17.5734 H   0  0  0  0  0  0  0  0  0  0  0  0
   14.6410    0.6340   17.0524 H   0  0  0  0  0  0  0  0  0  0  0  0
   13.4170   -0.6268   17.1182 H   0  0  0  0  0  0  0  0  0  0  0  0
   14.1784   -0.1079   14.8820 H   0  0  0  0  0  0  0  0  0  0  0  0
   16.5167   -2.7100   15.9910 H   0  0  0  0  0  0  0  0  0  0  0  0
   15.6637   -3.8915   15.0732 H   0  0  0  0  0  0  0  0  0  0  0  0
  1  2  1  0
  2  3  1  0
  3  4  1  0
  4  5  1  0
  5  6  1  0
  6  7  1  0
  7  8  1  0
  8  9  1  0
  9 10  1  0
 10 11  2  0
 10 12  1  0
 12  5  1  0
  1 13  1  0
  1 14  1  0
  1 15  1  0
  2 16  1  0
  3 17  1  0
  3 18  1  0
  4 19  1  0
  4 20  1  0
  6 21  1  0
  6 22  1  0
  7 23  1  0
  7 24  1  0
  8 25  1  0
  8 26  1  0
  9 27  1  0
 12 28  1  0
 12 29  1  0
M  END
>  <Energy>  (509) 
67.436320962281684

>  <compound_id>  (509) 
63281

>  <target_id>  (509) 
1

>  <reference_id>  (509) 
93

>  <inspiration_ids>  (509) 
[93, 98]

>  <energy_score>  (509) 
-37.03256730926131

>  <distance_score>  (509) 
1.9857087742746782

>  <path>  (509) 
/opt/xchem-fragalysis-2/maxwin/BulkDock/SCRATCH/511020/C63281-P93/C63281-P93.minimised.mol

>  <scratch_subdir>  (509) 
/opt/xchem-fragalysis-2/maxwin/BulkDock/SCRATCH/511020/C63281-P93

>  <fragmenstein_runtime>  (509) 
1.5318152904510498

>  <fragmenstein_outcome>  (509) 
too moved

>  <fragmenstein_mode>  (509) 
expansion

>  <fragmenstein_error>  (509) 


$$$$
C63281-P98
     RDKit          3D

 29 29  0  0  0  0  0  0  0  0999 V2000
   11.0910   -1.7847   14.9897 C   0  0  0  0  0  0  0  0  0  0  0  0
   11.9114   -2.9836   15.0374 N   0  0  0  0  0  0  0  0  0  0  0  0
   12.2458   -3.3474   16.4018 C   0  0  0  0  0  0  0  0  0  0  0  0
   13.5176   -4.1631   16.7487 C   0  0  0  0  0  0  0  0  0  0  0  0
   14.7992   -3.4968   16.9960 N   0  0  0  0  0  0  0  0  0  0  0  0
   14.9363   -2.7380   18.2250 C   0  0  0  0  0  0  0  0  0  0  0  0
   15.4602   -1.3036   18.0963 C   0  0  0  0  0  0  0  0  0  0  0  0
   14.5781   -0.4237   17.2291 C   0  0  0  0  0  0  0  0  0  0  0  0
   14.6612   -0.6159   15.8018 N   0  0  0  0  0  0  0  0  0  0  0  0
   14.7133   -1.8289   15.1827 C   0  0  0  0  0  0  0  0  0  0  0  0
   14.1376   -1.9513   14.1011 O   0  0  0  0  0  0  0  0  0  0  0  0
   15.4768   -2.9670   15.8287 C   0  0  0  0  0  0  0  0  0  0  0  0
   11.1686   -1.3451   13.9941 H   0  0  0  0  0  0  0  0  0  0  0  0
   10.0433   -2.0094   15.1980 H   0  0  0  0  0  0  0  0  0  0  0  0
   11.4358   -1.0069   15.6801 H   0  0  0  0  0  0  0  0  0  0  0  0
   12.7516   -2.8119   14.4765 H   0  0  0  0  0  0  0  0  0  0  0  0
   11.4179   -3.9759   16.7272 H   0  0  0  0  0  0  0  0  0  0  0  0
   12.2716   -2.4634   17.0387 H   0  0  0  0  0  0  0  0  0  0  0  0
   13.6680   -4.9590   16.0261 H   0  0  0  0  0  0  0  0  0  0  0  0
   13.2845   -4.7115   17.6723 H   0  0  0  0  0  0  0  0  0  0  0  0
   15.6359   -3.2854   18.8691 H   0  0  0  0  0  0  0  0  0  0  0  0
   13.9938   -2.7241   18.7818 H   0  0  0  0  0  0  0  0  0  0  0  0
   16.4983   -1.2852   17.7457 H   0  0  0  0  0  0  0  0  0  0  0  0
   15.4799   -0.8746   19.1067 H   0  0  0  0  0  0  0  0  0  0  0  0
   13.5273   -0.5326   17.5079 H   0  0  0  0  0  0  0  0  0  0  0  0
   14.8431    0.6257   17.4008 H   0  0  0  0  0  0  0  0  0  0  0  0
   14.1225    0.0335   15.2414 H   0  0  0  0  0  0  0  0  0  0  0  0
   16.4955   -2.6334   16.0572 H   0  0  0  0  0  0  0  0  0  0  0  0
   15.6317   -3.7561   15.0892 H   0  0  0  0  0  0  0  0  0  0  0  0
  1  2  1  0
  2  3  1  0
  3  4  1  0
  4  5  1  0
  5  6  1  0
  6  7  1  0
  7  8  1  0
  8  9  1  0
  9 10  1  0
 10 11  2  0
 10 12  1  0
 12  5  1  0
  1 13  1  0
  1 14  1  0
  1 15  1  0
  2 16  1  0
  3 17  1  0
  3 18  1  0
  4 19  1  0
  4 20  1  0
  6 21  1  0
  6 22  1  0
  7 23  1  0
  7 24  1  0
  8 25  1  0
  8 26  1  0
  9 27  1  0
 12 28  1  0
 12 29  1  0
M  END
>  <Energy>  (510) 
67.300435255092282

>  <compound_id>  (510) 
63281

>  <target_id>  (510) 
1

>  <reference_id>  (510) 
98

>  <inspiration_ids>  (510) 
[93, 98]

>  <energy_score>  (510) 
-37.16845301645142

>  <distance_score>  (510) 
2.1038627324792336

>  <path>  (510) 
/opt/xchem-fragalysis-2/maxwin/BulkDock/SCRATCH/511020/C63281-P98/C63281-P98.minimised.mol

>  <scratch_subdir>  (510) 
/opt/xchem-fragalysis-2/maxwin/BulkDock/SCRATCH/511020/C63281-P98

>  <fragmenstein_runtime>  (510) 
1.7386682033538818

>  <fragmenstein_outcome>  (510) 
too moved

>  <fragmenstein_mode>  (510) 
expansion

>  <fragmenstein_error>  (510) 


$$$$
C63283-P93
     RDKit          3D

 24 24  0  0  0  0  0  0  0  0999 V2000
   13.6988    2.9786   15.7742 C   0  0  0  0  0  0  0  0  0  0  0  0
   13.6535    1.5741   16.1636 N   0  0  0  0  0  0  0  0  0  0  0  0
   13.5219    0.6941   15.0002 C   0  0  0  0  0  0  0  0  0  0  0  0
   13.3984   -0.7862   15.4006 C   0  0  0  0  0  0  0  0  0  0  0  0
   14.7210   -1.5177   15.6275 C   0  0  0  0  0  0  0  0  0  0  0  0
   15.6414   -0.9203   16.6759 C   0  0  0  0  0  0  0  0  0  0  0  0
   16.6007   -2.0629   16.9935 C   0  0  0  0  0  0  0  0  0  0  0  0
   15.7731   -3.2891   16.7097 C   0  0  0  0  0  0  0  0  0  0  0  0
   16.1095   -4.4444   16.9060 O   0  0  0  0  0  0  0  0  0  0  0  0
   14.5867   -2.8706   16.1220 N   0  0  0  0  0  0  0  0  0  0  0  0
   13.7816    3.6025   16.6694 H   0  0  0  0  0  0  0  0  0  0  0  0
   14.5622    3.1878   15.1346 H   0  0  0  0  0  0  0  0  0  0  0  0
   12.7838    3.2735   15.2505 H   0  0  0  0  0  0  0  0  0  0  0  0
   14.4957    1.3596   16.6922 H   0  0  0  0  0  0  0  0  0  0  0  0
   12.6070    0.9674   14.4601 H   0  0  0  0  0  0  0  0  0  0  0  0
   14.3643    0.8268   14.3112 H   0  0  0  0  0  0  0  0  0  0  0  0
   12.8597   -1.3128   14.6009 H   0  0  0  0  0  0  0  0  0  0  0  0
   12.7583   -0.8808   16.2883 H   0  0  0  0  0  0  0  0  0  0  0  0
   15.2562   -1.5858   14.6704 H   0  0  0  0  0  0  0  0  0  0  0  0
   15.0845   -0.6552   17.5837 H   0  0  0  0  0  0  0  0  0  0  0  0
   16.1773   -0.0338   16.3244 H   0  0  0  0  0  0  0  0  0  0  0  0
   16.9282   -2.0419   18.0355 H   0  0  0  0  0  0  0  0  0  0  0  0
   17.4644   -2.0562   16.3217 H   0  0  0  0  0  0  0  0  0  0  0  0
   14.0131   -3.5863   15.6905 H   0  0  0  0  0  0  0  0  0  0  0  0
  1  2  1  0
  2  3  1  0
  3  4  1  0
  4  5  1  0
  5  6  1  0
  6  7  1  0
  7  8  1  0
  8  9  2  0
  8 10  1  0
 10  5  1  0
  1 11  1  0
  1 12  1  0
  1 13  1  0
  2 14  1  0
  3 15  1  0
  3 16  1  0
  4 17  1  0
  4 18  1  0
  5 19  1  0
  6 20  1  0
  6 21  1  0
  7 22  1  0
  7 23  1  0
 10 24  1  0
M  END
>  <Energy>  (511) 
-15.510125011033841

>  <compound_id>  (511) 
63283

>  <target_id>  (511) 
1

>  <reference_id>  (511) 
93

>  <inspiration_ids>  (511) 
[93, 98]

>  <energy_score>  (511) 
-19.647777988255214

>  <distance_score>  (511) 
1.947224187438994

>  <path>  (511) 
/opt/xchem-fragalysis-2/maxwin/BulkDock/SCRATCH/511020/C63283-P93/C63283-P93.minimised.mol

>  <scratch_subdir>  (511) 
/opt/xchem-fragalysis-2/maxwin/BulkDock/SCRATCH/511020/C63283-P93

>  <fragmenstein_runtime>  (511) 
0.6740763187408447

>  <fragmenstein_outcome>  (511) 
too moved

>  <fragmenstein_mode>  (511) 
expansion

>  <fragmenstein_error>  (511) 


$$$$
C63283-P98
     RDKit          3D

 24 24  0  0  0  0  0  0  0  0999 V2000
   13.6971    2.7853   16.2374 C   0  0  0  0  0  0  0  0  0  0  0  0
   14.0985    1.6114   15.4715 N   0  0  0  0  0  0  0  0  0  0  0  0
   13.1975    0.4808   15.7031 C   0  0  0  0  0  0  0  0  0  0  0  0
   13.5744   -0.7548   14.8749 C   0  0  0  0  0  0  0  0  0  0  0  0
   14.8108   -1.5591   15.2966 C   0  0  0  0  0  0  0  0  0  0  0  0
   15.9254   -0.8145   16.0074 C   0  0  0  0  0  0  0  0  0  0  0  0
   16.7942   -1.9394   16.5552 C   0  0  0  0  0  0  0  0  0  0  0  0
   15.8158   -3.0716   16.7303 C   0  0  0  0  0  0  0  0  0  0  0  0
   16.0809   -4.1702   17.1870 O   0  0  0  0  0  0  0  0  0  0  0  0
   14.5897   -2.6681   16.2025 N   0  0  0  0  0  0  0  0  0  0  0  0
   14.3998    3.6023   16.0478 H   0  0  0  0  0  0  0  0  0  0  0  0
   12.6965    3.1264   15.9527 H   0  0  0  0  0  0  0  0  0  0  0  0
   13.7127    2.5783   17.3123 H   0  0  0  0  0  0  0  0  0  0  0  0
   14.0970    1.8491   14.4791 H   0  0  0  0  0  0  0  0  0  0  0  0
   13.1862    0.2109   16.7649 H   0  0  0  0  0  0  0  0  0  0  0  0
   12.1768    0.7743   15.4276 H   0  0  0  0  0  0  0  0  0  0  0  0
   13.7190   -0.4292   13.8353 H   0  0  0  0  0  0  0  0  0  0  0  0
   12.7097   -1.4311   14.8521 H   0  0  0  0  0  0  0  0  0  0  0  0
   15.2178   -2.0190   14.3839 H   0  0  0  0  0  0  0  0  0  0  0  0
   15.5527   -0.2304   16.8568 H   0  0  0  0  0  0  0  0  0  0  0  0
   16.4848   -0.1466   15.3458 H   0  0  0  0  0  0  0  0  0  0  0  0
   17.2598   -1.6715   17.5065 H   0  0  0  0  0  0  0  0  0  0  0  0
   17.5565   -2.2407   15.8301 H   0  0  0  0  0  0  0  0  0  0  0  0
   13.9375   -3.4250   16.0196 H   0  0  0  0  0  0  0  0  0  0  0  0
  1  2  1  0
  2  3  1  0
  3  4  1  0
  4  5  1  0
  5  6  1  0
  6  7  1  0
  7  8  1  0
  8  9  2  0
  8 10  1  0
 10  5  1  0
  1 11  1  0
  1 12  1  0
  1 13  1  0
  2 14  1  0
  3 15  1  0
  3 16  1  0
  4 17  1  0
  4 18  1  0
  5 19  1  0
  6 20  1  0
  6 21  1  0
  7 22  1  0
  7 23  1  0
 10 24  1  0
M  END
>  <Energy>  (512) 
-14.354940816443447

>  <compound_id>  (512) 
63283

>  <target_id>  (512) 
1

>  <reference_id>  (512) 
98

>  <inspiration_ids>  (512) 
[93, 98]

>  <energy_score>  (512) 
-18.492593793665012

>  <distance_score>  (512) 
2.073010512120196

>  <path>  (512) 
/opt/xchem-fragalysis-2/maxwin/BulkDock/SCRATCH/511020/C63283-P98/C63283-P98.minimised.mol

>  <scratch_subdir>  (512) 
/opt/xchem-fragalysis-2/maxwin/BulkDock/SCRATCH/511020/C63283-P98

>  <fragmenstein_runtime>  (512) 
0.5668225288391113

>  <fragmenstein_outcome>  (512) 
too moved

>  <fragmenstein_mode>  (512) 
expansion

>  <fragmenstein_error>  (512) 


$$$$
C81726-P93
     RDKit          3D

 26 26  0  0  0  0  0  0  0  0999 V2000
   14.0451    1.3494   16.4014 C   0  0  0  0  0  0  0  0  0  0  0  0
   13.5731    1.2003   15.0311 N   0  0  0  0  0  0  0  0  0  0  0  0
   14.0556   -0.0428   14.4107 C   0  0  0  0  0  0  0  0  0  0  0  0
   13.4113   -1.3426   14.9544 C   0  0  0  0  0  0  0  0  0  0  0  0
   14.0566   -1.9567   16.1373 N   0  0  0  0  0  0  0  0  0  0  0  0
   13.2185   -3.0678   16.6249 C   0  0  0  0  0  0  0  0  0  0  0  0
   13.8284   -3.6262   17.9066 C   0  0  0  0  0  0  0  0  0  0  0  0
   15.1780   -4.0814   17.6966 N   0  0  0  0  0  0  0  0  0  0  0  0
   16.0147   -3.4700   16.8044 C   0  0  0  0  0  0  0  0  0  0  0  0
   17.1947   -3.8208   16.7645 O   0  0  0  0  0  0  0  0  0  0  0  0
   15.4288   -2.4425   15.8173 C   0  0  0  0  0  0  0  0  0  0  0  0
   13.7445    2.3312   16.7811 H   0  0  0  0  0  0  0  0  0  0  0  0
   13.6005    0.6028   17.0652 H   0  0  0  0  0  0  0  0  0  0  0  0
   15.1364    1.2874   16.4635 H   0  0  0  0  0  0  0  0  0  0  0  0
   13.9274    1.9870   14.4866 H   0  0  0  0  0  0  0  0  0  0  0  0
   15.1499   -0.0863   14.4214 H   0  0  0  0  0  0  0  0  0  0  0  0
   13.7778    0.0220   13.3507 H   0  0  0  0  0  0  0  0  0  0  0  0
   13.3826   -2.0738   14.1352 H   0  0  0  0  0  0  0  0  0  0  0  0
   12.3612   -1.1191   15.1882 H   0  0  0  0  0  0  0  0  0  0  0  0
   13.1320   -3.8583   15.8715 H   0  0  0  0  0  0  0  0  0  0  0  0
   12.2092   -2.7093   16.8430 H   0  0  0  0  0  0  0  0  0  0  0  0
   13.2431   -4.4716   18.2789 H   0  0  0  0  0  0  0  0  0  0  0  0
   13.8695   -2.8668   18.6928 H   0  0  0  0  0  0  0  0  0  0  0  0
   15.6483   -4.6429   18.3948 H   0  0  0  0  0  0  0  0  0  0  0  0
   16.1131   -1.5876   15.8123 H   0  0  0  0  0  0  0  0  0  0  0  0
   15.4529   -2.9208   14.8315 H   0  0  0  0  0  0  0  0  0  0  0  0
  1  2  1  0
  2  3  1  0
  3  4  1  0
  4  5  1  0
  5  6  1  0
  6  7  1  0
  7  8  1  0
  8  9  1  0
  9 10  2  0
  9 11  1  0
 11  5  1  0
  1 12  1  0
  1 13  1  0
  1 14  1  0
  2 15  1  0
  3 16  1  0
  3 17  1  0
  4 18  1  0
  4 19  1  0
  6 20  1  0
  6 21  1  0
  7 22  1  0
  7 23  1  0
  8 24  1  0
 11 25  1  0
 11 26  1  0
M  END
>  <Energy>  (513) 
85.57331529488637

>  <compound_id>  (513) 
81726

>  <target_id>  (513) 
1

>  <reference_id>  (513) 
93

>  <inspiration_ids>  (513) 
[93, 98]

>  <energy_score>  (513) 
-53.31753399732861

>  <distance_score>  (513) 
1.2462155524662928

>  <path>  (513) 
/opt/xchem-fragalysis-2/maxwin/BulkDock/SCRATCH/511020/C81726-P93/C81726-P93.minimised.mol

>  <scratch_subdir>  (513) 
/opt/xchem-fragalysis-2/maxwin/BulkDock/SCRATCH/511020/C81726-P93

>  <fragmenstein_runtime>  (513) 
1.7251813411712646

>  <fragmenstein_outcome>  (513) 
too moved

>  <fragmenstein_mode>  (513) 
expansion

>  <fragmenstein_error>  (513) 


$$$$
C81726-P98
     RDKit          3D

 26 26  0  0  0  0  0  0  0  0999 V2000
   14.1101    1.3440   16.4642 C   0  0  0  0  0  0  0  0  0  0  0  0
   13.5028    1.1673   15.1535 N   0  0  0  0  0  0  0  0  0  0  0  0
   13.9579   -0.0655   14.4944 C   0  0  0  0  0  0  0  0  0  0  0  0
   13.3481   -1.3763   15.0515 C   0  0  0  0  0  0  0  0  0  0  0  0
   14.0010   -1.9848   16.2363 N   0  0  0  0  0  0  0  0  0  0  0  0
   13.2366   -3.1951   16.6263 C   0  0  0  0  0  0  0  0  0  0  0  0
   13.8392   -3.8961   17.8548 C   0  0  0  0  0  0  0  0  0  0  0  0
   15.2245   -3.5230   18.1031 N   0  0  0  0  0  0  0  0  0  0  0  0
   15.9814   -3.3803   16.9509 C   0  0  0  0  0  0  0  0  0  0  0  0
   17.0433   -3.9735   16.7852 O   0  0  0  0  0  0  0  0  0  0  0  0
   15.4087   -2.3801   15.9291 C   0  0  0  0  0  0  0  0  0  0  0  0
   13.8084    2.3136   16.8735 H   0  0  0  0  0  0  0  0  0  0  0  0
   13.7742    0.5819   17.1725 H   0  0  0  0  0  0  0  0  0  0  0  0
   15.2034    1.3311   16.4099 H   0  0  0  0  0  0  0  0  0  0  0  0
   13.7717    1.9589   14.5685 H   0  0  0  0  0  0  0  0  0  0  0  0
   15.0513   -0.1062   14.4424 H   0  0  0  0  0  0  0  0  0  0  0  0
   13.6223    0.0102   13.4518 H   0  0  0  0  0  0  0  0  0  0  0  0
   13.3369   -2.1062   14.2302 H   0  0  0  0  0  0  0  0  0  0  0  0
   12.2939   -1.1786   15.2895 H   0  0  0  0  0  0  0  0  0  0  0  0
   13.2087   -3.9091   15.7988 H   0  0  0  0  0  0  0  0  0  0  0  0
   12.1952   -2.9388   16.8395 H   0  0  0  0  0  0  0  0  0  0  0  0
   13.8049   -4.9821   17.7223 H   0  0  0  0  0  0  0  0  0  0  0  0
   13.2809   -3.6457   18.7618 H   0  0  0  0  0  0  0  0  0  0  0  0
   15.1986   -2.6275   18.5736 H   0  0  0  0  0  0  0  0  0  0  0  0
   16.0516   -1.4946   15.9501 H   0  0  0  0  0  0  0  0  0  0  0  0
   15.4777   -2.8564   14.9447 H   0  0  0  0  0  0  0  0  0  0  0  0
  1  2  1  0
  2  3  1  0
  3  4  1  0
  4  5  1  0
  5  6  1  0
  6  7  1  0
  7  8  1  0
  8  9  1  0
  9 10  2  0
  9 11  1  0
 11  5  1  0
  1 12  1  0
  1 13  1  0
  1 14  1  0
  2 15  1  0
  3 16  1  0
  3 17  1  0
  4 18  1  0
  4 19  1  0
  6 20  1  0
  6 21  1  0
  7 22  1  0
  7 23  1  0
  8 24  1  0
 11 25  1  0
 11 26  1  0
M  END
>  <Energy>  (514) 
103.31424698655017

>  <compound_id>  (514) 
81726

>  <target_id>  (514) 
1

>  <reference_id>  (514) 
98

>  <inspiration_ids>  (514) 
[93, 98]

>  <energy_score>  (514) 
-35.57660230566452

>  <distance_score>  (514) 
1.2303766803705622

>  <path>  (514) 
/opt/xchem-fragalysis-2/maxwin/BulkDock/SCRATCH/511020/C81726-P98/C81726-P98.minimised.mol

>  <scratch_subdir>  (514) 
/opt/xchem-fragalysis-2/maxwin/BulkDock/SCRATCH/511020/C81726-P98

>  <fragmenstein_runtime>  (514) 
1.8135488033294678

>  <fragmenstein_outcome>  (514) 
too moved

>  <fragmenstein_mode>  (514) 
expansion

>  <fragmenstein_error>  (514) 


$$$$
C63284-P93
     RDKit          3D

 27 27  0  0  0  0  0  0  0  0999 V2000
   14.4202   -1.7597   12.7899 C   0  0  0  0  0  0  0  0  0  0  0  0
   13.5538   -0.5389   13.0530 C   0  0  0  0  0  0  0  0  0  0  0  0
   12.2840   -0.8080   13.7658 N   0  0  0  0  0  0  0  0  0  0  0  0
   11.4848    0.4249   13.7635 C   0  0  0  0  0  0  0  0  0  0  0  0
   12.3970   -1.3206   15.1590 C   0  0  0  0  0  0  0  0  0  0  0  0
   12.0980   -2.8208   15.1782 C   0  0  0  0  0  0  0  0  0  0  0  0
   12.6847   -3.5304   16.3908 C   0  0  0  0  0  0  0  0  0  0  0  0
   14.1542   -3.2062   16.5415 C   0  0  0  0  0  0  0  0  0  0  0  0
   14.3597   -1.7836   16.6253 N   0  0  0  0  0  0  0  0  0  0  0  0
   13.6809   -0.8693   15.8714 C   0  0  0  0  0  0  0  0  0  0  0  0
   14.0878    0.2927   15.8441 O   0  0  0  0  0  0  0  0  0  0  0  0
   13.8587   -2.5336   12.2620 H   0  0  0  0  0  0  0  0  0  0  0  0
   14.8279   -2.1811   13.7102 H   0  0  0  0  0  0  0  0  0  0  0  0
   15.2694   -1.4828   12.1560 H   0  0  0  0  0  0  0  0  0  0  0  0
   13.3221   -0.1137   12.0690 H   0  0  0  0  0  0  0  0  0  0  0  0
   14.1535    0.2385   13.5362 H   0  0  0  0  0  0  0  0  0  0  0  0
   10.4911    0.2470   14.1903 H   0  0  0  0  0  0  0  0  0  0  0  0
   11.9638    1.2313   14.3301 H   0  0  0  0  0  0  0  0  0  0  0  0
   11.3161    0.7803   12.7408 H   0  0  0  0  0  0  0  0  0  0  0  0
   11.6018   -0.8786   15.7793 H   0  0  0  0  0  0  0  0  0  0  0  0
   12.4651   -3.2781   14.2622 H   0  0  0  0  0  0  0  0  0  0  0  0
   11.0122   -2.9788   15.1545 H   0  0  0  0  0  0  0  0  0  0  0  0
   12.1663   -3.1987   17.2890 H   0  0  0  0  0  0  0  0  0  0  0  0
   12.5353   -4.6114   16.3182 H   0  0  0  0  0  0  0  0  0  0  0  0
   14.7411   -3.5795   15.6986 H   0  0  0  0  0  0  0  0  0  0  0  0
   14.5556   -3.6529   17.4566 H   0  0  0  0  0  0  0  0  0  0  0  0
   15.2356   -1.4343   16.9972 H   0  0  0  0  0  0  0  0  0  0  0  0
  1  2  1  0
  2  3  1  0
  3  4  1  0
  3  5  1  0
  5  6  1  0
  6  7  1  0
  7  8  1  0
  8  9  1  0
  9 10  1  0
 10 11  2  0
 10  5  1  0
  1 12  1  0
  1 13  1  0
  1 14  1  0
  2 15  1  0
  2 16  1  0
  4 17  1  0
  4 18  1  0
  4 19  1  0
  5 20  1  0
  6 21  1  0
  6 22  1  0
  7 23  1  0
  7 24  1  0
  8 25  1  0
  8 26  1  0
  9 27  1  0
M  END
>  <Energy>  (515) 
31.58125094129236

>  <compound_id>  (515) 
63284

>  <target_id>  (515) 
1

>  <reference_id>  (515) 
93

>  <inspiration_ids>  (515) 
[93, 98]

>  <energy_score>  (515) 
-39.251614347985196

>  <distance_score>  (515) 
1.1176440799937537

>  <path>  (515) 
/opt/xchem-fragalysis-2/maxwin/BulkDock/SCRATCH/511020/C63284-P93/C63284-P93.minimised.mol

>  <scratch_subdir>  (515) 
/opt/xchem-fragalysis-2/maxwin/BulkDock/SCRATCH/511020/C63284-P93

>  <fragmenstein_runtime>  (515) 
5.574914932250977

>  <fragmenstein_outcome>  (515) 
too moved

>  <fragmenstein_mode>  (515) 
expansion

>  <fragmenstein_error>  (515) 


$$$$
C63284-P98
     RDKit          3D

 27 27  0  0  0  0  0  0  0  0999 V2000
   14.5524   -1.7215   12.3866 C   0  0  0  0  0  0  0  0  0  0  0  0
   13.7363   -0.4847   12.7455 C   0  0  0  0  0  0  0  0  0  0  0  0
   12.5400   -0.7919   13.5625 N   0  0  0  0  0  0  0  0  0  0  0  0
   11.5644    0.2960   13.3266 C   0  0  0  0  0  0  0  0  0  0  0  0
   12.7751   -0.8163   15.0360 C   0  0  0  0  0  0  0  0  0  0  0  0
   11.7663   -1.7331   15.7249 C   0  0  0  0  0  0  0  0  0  0  0  0
   12.1981   -3.1839   15.7080 C   0  0  0  0  0  0  0  0  0  0  0  0
   13.5219   -3.3126   16.4344 C   0  0  0  0  0  0  0  0  0  0  0  0
   14.5028   -2.3887   15.9216 N   0  0  0  0  0  0  0  0  0  0  0  0
   14.2071   -1.1368   15.4611 C   0  0  0  0  0  0  0  0  0  0  0  0
   15.1074   -0.3016   15.3624 O   0  0  0  0  0  0  0  0  0  0  0  0
   13.9197   -2.4968   11.9458 H   0  0  0  0  0  0  0  0  0  0  0  0
   15.0718   -2.1548   13.2420 H   0  0  0  0  0  0  0  0  0  0  0  0
   15.3143   -1.4589   11.6448 H   0  0  0  0  0  0  0  0  0  0  0  0
   13.4202   -0.0630   11.7846 H   0  0  0  0  0  0  0  0  0  0  0  0
   14.3601    0.3005   13.1861 H   0  0  0  0  0  0  0  0  0  0  0  0
   10.6355    0.1351   13.8829 H   0  0  0  0  0  0  0  0  0  0  0  0
   11.9655    1.2753   13.6181 H   0  0  0  0  0  0  0  0  0  0  0  0
   11.2914    0.3676   12.2739 H   0  0  0  0  0  0  0  0  0  0  0  0
   12.6166    0.1928   15.4480 H   0  0  0  0  0  0  0  0  0  0  0  0
   10.7589   -1.6324   15.3071 H   0  0  0  0  0  0  0  0  0  0  0  0
   11.7134   -1.3908   16.7549 H   0  0  0  0  0  0  0  0  0  0  0  0
   11.4501   -3.8209   16.1854 H   0  0  0  0  0  0  0  0  0  0  0  0
   12.2808   -3.4975   14.6656 H   0  0  0  0  0  0  0  0  0  0  0  0
   13.9282   -4.3240   16.3456 H   0  0  0  0  0  0  0  0  0  0  0  0
   13.3992   -3.0952   17.5011 H   0  0  0  0  0  0  0  0  0  0  0  0
   15.4694   -2.4985   16.2044 H   0  0  0  0  0  0  0  0  0  0  0  0
  1  2  1  0
  2  3  1  0
  3  4  1  0
  3  5  1  0
  5  6  1  0
  6  7  1  0
  7  8  1  0
  8  9  1  0
  9 10  1  0
 10 11  2  0
 10  5  1  0
  1 12  1  0
  1 13  1  0
  1 14  1  0
  2 15  1  0
  2 16  1  0
  4 17  1  0
  4 18  1  0
  4 19  1  0
  5 20  1  0
  6 21  1  0
  6 22  1  0
  7 23  1  0
  7 24  1  0
  8 25  1  0
  8 26  1  0
  9 27  1  0
M  END
>  <Energy>  (516) 
34.07530883716403

>  <compound_id>  (516) 
63284

>  <target_id>  (516) 
1

>  <reference_id>  (516) 
98

>  <inspiration_ids>  (516) 
[93, 98]

>  <energy_score>  (516) 
-36.7575564521124

>  <distance_score>  (516) 
1.5674464210099377

>  <path>  (516) 
/opt/xchem-fragalysis-2/maxwin/BulkDock/SCRATCH/511020/C63284-P98/C63284-P98.minimised.mol

>  <scratch_subdir>  (516) 
/opt/xchem-fragalysis-2/maxwin/BulkDock/SCRATCH/511020/C63284-P98

>  <fragmenstein_runtime>  (516) 
5.0149946212768555

>  <fragmenstein_outcome>  (516) 
too moved

>  <fragmenstein_mode>  (516) 
expansion

>  <fragmenstein_error>  (516) 


$$$$
C63286-P93
     RDKit          3D

 30 30  0  0  0  0  0  0  0  0999 V2000
   10.8248   -3.0371   14.7576 C   0  0  0  0  0  0  0  0  0  0  0  0
   11.6533   -1.8172   15.0577 C   0  0  0  0  0  0  0  0  0  0  0  0
   13.0346   -2.1586   14.7154 N   0  0  0  0  0  0  0  0  0  0  0  0
   13.3926   -1.5822   13.4309 C   0  0  0  0  0  0  0  0  0  0  0  0
   13.9512   -1.8913   15.8437 C   0  0  0  0  0  0  0  0  0  0  0  0
   15.4292   -1.9008   15.4384 C   0  0  0  0  0  0  0  0  0  0  0  0
   16.2903   -1.0141   16.3320 C   0  0  0  0  0  0  0  0  0  0  0  0
   16.0580   -1.1522   17.8267 C   0  0  0  0  0  0  0  0  0  0  0  0
   15.8563   -2.5914   18.2463 C   0  0  0  0  0  0  0  0  0  0  0  0
   14.5032   -3.0560   18.0533 N   0  0  0  0  0  0  0  0  0  0  0  0
   13.6945   -2.9720   16.9574 C   0  0  0  0  0  0  0  0  0  0  0  0
   12.7264   -3.7342   16.9802 O   0  0  0  0  0  0  0  0  0  0  0  0
   11.0567   -3.4238   13.7619 H   0  0  0  0  0  0  0  0  0  0  0  0
   11.0096   -3.8496   15.4582 H   0  0  0  0  0  0  0  0  0  0  0  0
    9.7659   -2.7801   14.8179 H   0  0  0  0  0  0  0  0  0  0  0  0
   11.2916   -0.9507   14.4903 H   0  0  0  0  0  0  0  0  0  0  0  0
   11.5210   -1.5473   16.1106 H   0  0  0  0  0  0  0  0  0  0  0  0
   12.6126   -1.8207   12.7136 H   0  0  0  0  0  0  0  0  0  0  0  0
   14.2933   -2.0348   13.0061 H   0  0  0  0  0  0  0  0  0  0  0  0
   13.5111   -0.4946   13.4755 H   0  0  0  0  0  0  0  0  0  0  0  0
   13.7052   -0.9088   16.2686 H   0  0  0  0  0  0  0  0  0  0  0  0
   15.8176   -2.9274   15.4322 H   0  0  0  0  0  0  0  0  0  0  0  0
   15.6064   -1.5125   14.4330 H   0  0  0  0  0  0  0  0  0  0  0  0
   16.1411    0.0375   16.0552 H   0  0  0  0  0  0  0  0  0  0  0  0
   17.3432   -1.2340   16.1125 H   0  0  0  0  0  0  0  0  0  0  0  0
   16.9338   -0.7422   18.3444 H   0  0  0  0  0  0  0  0  0  0  0  0
   15.2023   -0.5396   18.1369 H   0  0  0  0  0  0  0  0  0  0  0  0
   16.0542   -2.6867   19.3196 H   0  0  0  0  0  0  0  0  0  0  0  0
   16.5357   -3.2737   17.7247 H   0  0  0  0  0  0  0  0  0  0  0  0
   14.1818   -3.7945   18.6697 H   0  0  0  0  0  0  0  0  0  0  0  0
  1  2  1  0
  2  3  1  0
  3  4  1  0
  3  5  1  0
  5  6  1  0
  6  7  1  0
  7  8  1  0
  8  9  1  0
  9 10  1  0
 10 11  1  0
 11 12  2  0
 11  5  1  0
  1 13  1  0
  1 14  1  0
  1 15  1  0
  2 16  1  0
  2 17  1  0
  4 18  1  0
  4 19  1  0
  4 20  1  0
  5 21  1  0
  6 22  1  0
  6 23  1  0
  7 24  1  0
  7 25  1  0
  8 26  1  0
  8 27  1  0
  9 28  1  0
  9 29  1  0
 10 30  1  0
M  END
>  <Energy>  (517) 
45.454242041231367

>  <compound_id>  (517) 
63286

>  <target_id>  (517) 
1

>  <reference_id>  (517) 
93

>  <inspiration_ids>  (517) 
[93, 98]

>  <energy_score>  (517) 
-30.021784919757692

>  <distance_score>  (517) 
2.0785474789324128

>  <path>  (517) 
/opt/xchem-fragalysis-2/maxwin/BulkDock/SCRATCH/511020/C63286-P93/C63286-P93.minimised.mol

>  <scratch_subdir>  (517) 
/opt/xchem-fragalysis-2/maxwin/BulkDock/SCRATCH/511020/C63286-P93

>  <fragmenstein_runtime>  (517) 
4.430831432342529

>  <fragmenstein_outcome>  (517) 
too moved

>  <fragmenstein_mode>  (517) 
expansion

>  <fragmenstein_error>  (517) 


$$$$
C63286-P98
     RDKit          3D

 30 30  0  0  0  0  0  0  0  0999 V2000
   10.4085   -0.4664   15.3471 C   0  0  0  0  0  0  0  0  0  0  0  0
   11.5563   -0.1568   14.4110 C   0  0  0  0  0  0  0  0  0  0  0  0
   12.5779   -1.1851   14.3075 N   0  0  0  0  0  0  0  0  0  0  0  0
   12.2339   -2.3000   13.4598 C   0  0  0  0  0  0  0  0  0  0  0  0
   13.3907   -1.4677   15.5071 C   0  0  0  0  0  0  0  0  0  0  0  0
   14.8377   -1.5645   15.0015 C   0  0  0  0  0  0  0  0  0  0  0  0
   15.8894   -1.2503   16.0564 C   0  0  0  0  0  0  0  0  0  0  0  0
   16.0664   -2.3406   17.0987 C   0  0  0  0  0  0  0  0  0  0  0  0
   14.8365   -2.5296   17.9622 C   0  0  0  0  0  0  0  0  0  0  0  0
   13.7643   -3.2163   17.2822 N   0  0  0  0  0  0  0  0  0  0  0  0
   12.9437   -2.7186   16.3063 C   0  0  0  0  0  0  0  0  0  0  0  0
   11.8549   -3.2748   16.1737 O   0  0  0  0  0  0  0  0  0  0  0  0
    9.6316    0.3002   15.2638 H   0  0  0  0  0  0  0  0  0  0  0  0
    9.9494   -1.4371   15.1432 H   0  0  0  0  0  0  0  0  0  0  0  0
   10.7749   -0.4538   16.3704 H   0  0  0  0  0  0  0  0  0  0  0  0
   11.1593    0.0764   13.4155 H   0  0  0  0  0  0  0  0  0  0  0  0
   12.0296    0.7774   14.7399 H   0  0  0  0  0  0  0  0  0  0  0  0
   11.4994   -2.9894   13.8790 H   0  0  0  0  0  0  0  0  0  0  0  0
   13.1246   -2.8404   13.1510 H   0  0  0  0  0  0  0  0  0  0  0  0
   11.8313   -1.9157   12.5322 H   0  0  0  0  0  0  0  0  0  0  0  0
   13.3176   -0.6147   16.1943 H   0  0  0  0  0  0  0  0  0  0  0  0
   15.0430   -2.5502   14.5709 H   0  0  0  0  0  0  0  0  0  0  0  0
   14.9923   -0.8355   14.1931 H   0  0  0  0  0  0  0  0  0  0  0  0
   15.6650   -0.2927   16.5420 H   0  0  0  0  0  0  0  0  0  0  0  0
   16.8523   -1.1154   15.5472 H   0  0  0  0  0  0  0  0  0  0  0  0
   16.3429   -3.2847   16.6135 H   0  0  0  0  0  0  0  0  0  0  0  0
   16.9056   -2.0581   17.7459 H   0  0  0  0  0  0  0  0  0  0  0  0
   14.4615   -1.5684   18.3288 H   0  0  0  0  0  0  0  0  0  0  0  0
   15.0936   -3.1441   18.8316 H   0  0  0  0  0  0  0  0  0  0  0  0
   13.3141   -3.9880   17.7687 H   0  0  0  0  0  0  0  0  0  0  0  0
  1  2  1  0
  2  3  1  0
  3  4  1  0
  3  5  1  0
  5  6  1  0
  6  7  1  0
  7  8  1  0
  8  9  1  0
  9 10  1  0
 10 11  1  0
 11 12  2  0
 11  5  1  0
  1 13  1  0
  1 14  1  0
  1 15  1  0
  2 16  1  0
  2 17  1  0
  4 18  1  0
  4 19  1  0
  4 20  1  0
  5 21  1  0
  6 22  1  0
  6 23  1  0
  7 24  1  0
  7 25  1  0
  8 26  1  0
  8 27  1  0
  9 28  1  0
  9 29  1  0
 10 30  1  0
M  END
>  <Energy>  (518) 
37.13158473502456

>  <compound_id>  (518) 
63286

>  <target_id>  (518) 
1

>  <reference_id>  (518) 
98

>  <inspiration_ids>  (518) 
[93, 98]

>  <energy_score>  (518) 
-38.344442225963974

>  <distance_score>  (518) 
1.974487527719777

>  <path>  (518) 
/opt/xchem-fragalysis-2/maxwin/BulkDock/SCRATCH/511020/C63286-P98/C63286-P98.minimised.mol

>  <scratch_subdir>  (518) 
/opt/xchem-fragalysis-2/maxwin/BulkDock/SCRATCH/511020/C63286-P98

>  <fragmenstein_runtime>  (518) 
3.976344585418701

>  <fragmenstein_outcome>  (518) 
too moved

>  <fragmenstein_mode>  (518) 
expansion

>  <fragmenstein_error>  (518) 


$$$$
C63290-P93
     RDKit          3D

 49 52  0  0  0  0  0  0  0  0999 V2000
   12.5818    0.4135   13.1030 C   0  0  0  0  0  0  0  0  0  0  0  0
   13.4457    0.5417   14.3494 C   0  0  0  0  0  0  0  0  0  0  0  0
   12.7928    1.4389   15.3153 N   0  0  0  0  0  0  0  0  0  0  0  0
   13.7290    1.8983   16.3524 C   0  0  0  0  0  0  0  0  0  0  0  0
   14.1064    3.3264   16.1447 C   0  0  0  0  0  0  0  0  0  0  0  0
   14.7663    3.8203   15.1133 N   0  0  0  0  0  0  0  0  0  0  0  0
   14.8725    5.1823   15.2784 N   0  0  0  0  0  0  0  0  0  0  0  0
   14.2719    5.4978   16.4035 C   0  0  0  0  0  0  0  0  0  0  0  0
   13.7891    4.3569   16.9867 N   0  0  0  0  0  0  0  0  0  0  0  0
   13.0110    4.3281   18.2065 C   0  0  0  0  0  0  0  0  0  0  0  0
   13.1091    5.6368   18.9946 C   0  0  0  0  0  0  0  0  0  0  0  0
   13.0018    6.8494   18.0670 C   0  0  0  0  0  0  0  0  0  0  0  0
   14.1230    6.8385   17.0245 C   0  0  0  0  0  0  0  0  0  0  0  0
   13.7274   -0.8159   14.9596 C   0  0  0  0  0  0  0  0  0  0  0  0
   12.7626   -1.5482   15.6642 C   0  0  0  0  0  0  0  0  0  0  0  0
   13.1393   -2.6571   16.4319 C   0  0  0  0  0  0  0  0  0  0  0  0
   14.4795   -3.0474   16.4969 C   0  0  0  0  0  0  0  0  0  0  0  0
   14.9807   -3.9563   17.4573 N   0  0  0  0  0  0  0  0  0  0  0  0
   16.3858   -4.2964   17.5387 C   0  0  0  0  0  0  0  0  0  0  0  0
   16.5401   -5.0339   18.8556 C   0  0  0  0  0  0  0  0  0  0  0  0
   15.2084   -5.1270   19.3713 N   0  0  0  0  0  0  0  0  0  0  0  0
   14.3247   -4.3718   18.6140 C   0  0  0  0  0  0  0  0  0  0  0  0
   13.1907   -4.1537   18.9886 O   0  0  0  0  0  0  0  0  0  0  0  0
   15.3856   -2.4323   15.6309 C   0  0  0  0  0  0  0  0  0  0  0  0
   15.0240   -1.3169   14.8901 C   0  0  0  0  0  0  0  0  0  0  0  0
   13.1197   -0.1787   12.3566 H   0  0  0  0  0  0  0  0  0  0  0  0
   12.3759    1.3924   12.6556 H   0  0  0  0  0  0  0  0  0  0  0  0
   11.6225   -0.0720   13.3104 H   0  0  0  0  0  0  0  0  0  0  0  0
   14.3864    1.0081   14.0253 H   0  0  0  0  0  0  0  0  0  0  0  0
   12.4651    2.2592   14.8021 H   0  0  0  0  0  0  0  0  0  0  0  0
   13.2298    1.7694   17.3172 H   0  0  0  0  0  0  0  0  0  0  0  0
   14.6453    1.2993   16.4072 H   0  0  0  0  0  0  0  0  0  0  0  0
   13.3651    3.4950   18.8217 H   0  0  0  0  0  0  0  0  0  0  0  0
   11.9743    4.1382   17.9069 H   0  0  0  0  0  0  0  0  0  0  0  0
   14.0695    5.6740   19.5244 H   0  0  0  0  0  0  0  0  0  0  0  0
   12.3218    5.6703   19.7556 H   0  0  0  0  0  0  0  0  0  0  0  0
   13.0488    7.7759   18.6500 H   0  0  0  0  0  0  0  0  0  0  0  0
   12.0266    6.8342   17.5636 H   0  0  0  0  0  0  0  0  0  0  0  0
   15.0717    7.1106   17.5023 H   0  0  0  0  0  0  0  0  0  0  0  0
   13.9186    7.5901   16.2544 H   0  0  0  0  0  0  0  0  0  0  0  0
   11.7306   -1.2067   15.6833 H   0  0  0  0  0  0  0  0  0  0  0  0
   12.3843   -3.1650   17.0217 H   0  0  0  0  0  0  0  0  0  0  0  0
   17.0103   -3.3965   17.5574 H   0  0  0  0  0  0  0  0  0  0  0  0
   16.6653   -4.9244   16.6865 H   0  0  0  0  0  0  0  0  0  0  0  0
   17.1510   -4.4706   19.5677 H   0  0  0  0  0  0  0  0  0  0  0  0
   16.9602   -6.0363   18.7385 H   0  0  0  0  0  0  0  0  0  0  0  0
   14.9671   -5.3001   20.3397 H   0  0  0  0  0  0  0  0  0  0  0  0
   16.4223   -2.7438   15.5598 H   0  0  0  0  0  0  0  0  0  0  0  0
   15.7841   -0.8049   14.3035 H   0  0  0  0  0  0  0  0  0  0  0  0
  1  2  1  0
  2  3  1  0
  3  4  1  0
  4  5  1  0
  5  6  2  0
  6  7  1  0
  7  8  2  0
  8  9  1  0
  9 10  1  0
 10 11  1  0
 11 12  1  0
 12 13  1  0
  2 14  1  0
 14 15  2  0
 15 16  1  0
 16 17  2  0
 17 18  1  0
 18 19  1  0
 19 20  1  0
 20 21  1  0
 21 22  1  0
 22 23  2  0
 17 24  1  0
 24 25  2  0
  9  5  1  0
 25 14  1  0
 13  8  1  0
 22 18  1  0
  1 26  1  0
  1 27  1  0
  1 28  1  0
  2 29  1  0
  3 30  1  0
  4 31  1  0
  4 32  1  0
 10 33  1  0
 10 34  1  0
 11 35  1  0
 11 36  1  0
 12 37  1  0
 12 38  1  0
 13 39  1  0
 13 40  1  0
 15 41  1  0
 16 42  1  0
 19 43  1  0
 19 44  1  0
 20 45  1  0
 20 46  1  0
 21 47  1  0
 24 48  1  0
 25 49  1  0
M  END
>  <Energy>  (519) 
-16.018586075129129

>  <compound_id>  (519) 
63290

>  <target_id>  (519) 
1

>  <reference_id>  (519) 
93

>  <inspiration_ids>  (519) 
[93, 98]

>  <energy_score>  (519) 
-37.00902246955286

>  <distance_score>  (519) 
1.7295500354436355

>  <path>  (519) 
/opt/xchem-fragalysis-2/maxwin/BulkDock/SCRATCH/511020/C63290-P93/C63290-P93.minimised.mol

>  <scratch_subdir>  (519) 
/opt/xchem-fragalysis-2/maxwin/BulkDock/SCRATCH/511020/C63290-P93

>  <fragmenstein_runtime>  (519) 
3.6280782222747803

>  <fragmenstein_outcome>  (519) 
too moved

>  <fragmenstein_mode>  (519) 
expansion

>  <fragmenstein_error>  (519) 


$$$$
C63290-P98
     RDKit          3D

 49 52  0  0  0  0  0  0  0  0999 V2000
   11.7118    0.1434   13.5611 C   0  0  0  0  0  0  0  0  0  0  0  0
   13.0492    0.3182   14.2831 C   0  0  0  0  0  0  0  0  0  0  0  0
   12.9371    1.4871   15.1741 N   0  0  0  0  0  0  0  0  0  0  0  0
   14.2352    1.8928   15.7279 C   0  0  0  0  0  0  0  0  0  0  0  0
   14.2193    3.3412   16.0840 C   0  0  0  0  0  0  0  0  0  0  0  0
   14.7043    4.3263   15.3514 N   0  0  0  0  0  0  0  0  0  0  0  0
   14.4721    5.5122   16.0097 N   0  0  0  0  0  0  0  0  0  0  0  0
   13.8395    5.2327   17.1267 C   0  0  0  0  0  0  0  0  0  0  0  0
   13.6694    3.8770   17.2134 N   0  0  0  0  0  0  0  0  0  0  0  0
   12.9546    3.2115   18.2771 C   0  0  0  0  0  0  0  0  0  0  0  0
   12.8054    4.1001   19.5138 C   0  0  0  0  0  0  0  0  0  0  0  0
   12.3618    5.5109   19.1186 C   0  0  0  0  0  0  0  0  0  0  0  0
   13.3871    6.1673   18.1891 C   0  0  0  0  0  0  0  0  0  0  0  0
   13.4726   -0.9393   15.0117 C   0  0  0  0  0  0  0  0  0  0  0  0
   12.6050   -1.7210   15.7833 C   0  0  0  0  0  0  0  0  0  0  0  0
   13.0854   -2.8182   16.5147 C   0  0  0  0  0  0  0  0  0  0  0  0
   14.4416   -3.1480   16.4955 C   0  0  0  0  0  0  0  0  0  0  0  0
   15.0111   -4.1523   17.3082 N   0  0  0  0  0  0  0  0  0  0  0  0
   16.3919   -4.5665   17.1785 C   0  0  0  0  0  0  0  0  0  0  0  0
   16.6471   -5.4492   18.3834 C   0  0  0  0  0  0  0  0  0  0  0  0
   15.3462   -5.6829   18.9271 N   0  0  0  0  0  0  0  0  0  0  0  0
   14.4191   -4.7978   18.3923 C   0  0  0  0  0  0  0  0  0  0  0  0
   13.3086   -4.6710   18.8685 O   0  0  0  0  0  0  0  0  0  0  0  0
   15.2791   -2.4158   15.6518 C   0  0  0  0  0  0  0  0  0  0  0  0
   14.8102   -1.3238   14.9343 C   0  0  0  0  0  0  0  0  0  0  0  0
   11.7384   -0.7584   12.9443 H   0  0  0  0  0  0  0  0  0  0  0  0
   11.5053    0.9955   12.9032 H   0  0  0  0  0  0  0  0  0  0  0  0
   10.8692    0.0537   14.2559 H   0  0  0  0  0  0  0  0  0  0  0  0
   13.7820    0.5389   13.4943 H   0  0  0  0  0  0  0  0  0  0  0  0
   12.6045    2.2667   14.6006 H   0  0  0  0  0  0  0  0  0  0  0  0
   14.4821    1.2876   16.6065 H   0  0  0  0  0  0  0  0  0  0  0  0
   15.0378    1.7534   14.9928 H   0  0  0  0  0  0  0  0  0  0  0  0
   13.4903    2.2931   18.5356 H   0  0  0  0  0  0  0  0  0  0  0  0
   11.9694    2.9511   17.8751 H   0  0  0  0  0  0  0  0  0  0  0  0
   13.7644    4.1584   20.0441 H   0  0  0  0  0  0  0  0  0  0  0  0
   12.0830    3.6555   20.2054 H   0  0  0  0  0  0  0  0  0  0  0  0
   12.2254    6.1289   20.0129 H   0  0  0  0  0  0  0  0  0  0  0  0
   11.3882    5.4548   18.6148 H   0  0  0  0  0  0  0  0  0  0  0  0
   14.2612    6.4806   18.7726 H   0  0  0  0  0  0  0  0  0  0  0  0
   12.9557    7.0686   17.7404 H   0  0  0  0  0  0  0  0  0  0  0  0
   11.5507   -1.4705   15.8476 H   0  0  0  0  0  0  0  0  0  0  0  0
   12.3876   -3.3947   17.1133 H   0  0  0  0  0  0  0  0  0  0  0  0
   17.0814   -3.7169   17.1994 H   0  0  0  0  0  0  0  0  0  0  0  0
   16.5097   -5.1242   16.2429 H   0  0  0  0  0  0  0  0  0  0  0  0
   17.2446   -4.9328   19.1416 H   0  0  0  0  0  0  0  0  0  0  0  0
   17.1264   -6.3983   18.1306 H   0  0  0  0  0  0  0  0  0  0  0  0
   15.1644   -6.0456   19.8547 H   0  0  0  0  0  0  0  0  0  0  0  0
   16.3341   -2.6432   15.5427 H   0  0  0  0  0  0  0  0  0  0  0  0
   15.5124   -0.7621   14.3212 H   0  0  0  0  0  0  0  0  0  0  0  0
  1  2  1  0
  2  3  1  0
  3  4  1  0
  4  5  1  0
  5  6  2  0
  6  7  1  0
  7  8  2  0
  8  9  1  0
  9 10  1  0
 10 11  1  0
 11 12  1  0
 12 13  1  0
  2 14  1  0
 14 15  2  0
 15 16  1  0
 16 17  2  0
 17 18  1  0
 18 19  1  0
 19 20  1  0
 20 21  1  0
 21 22  1  0
 22 23  2  0
 17 24  1  0
 24 25  2  0
  9  5  1  0
 25 14  1  0
 13  8  1  0
 22 18  1  0
  1 26  1  0
  1 27  1  0
  1 28  1  0
  2 29  1  0
  3 30  1  0
  4 31  1  0
  4 32  1  0
 10 33  1  0
 10 34  1  0
 11 35  1  0
 11 36  1  0
 12 37  1  0
 12 38  1  0
 13 39  1  0
 13 40  1  0
 15 41  1  0
 16 42  1  0
 19 43  1  0
 19 44  1  0
 20 45  1  0
 20 46  1  0
 21 47  1  0
 24 48  1  0
 25 49  1  0
M  END
>  <Energy>  (520) 
-22.316064986930126

>  <compound_id>  (520) 
63290

>  <target_id>  (520) 
1

>  <reference_id>  (520) 
98

>  <inspiration_ids>  (520) 
[93, 98]

>  <energy_score>  (520) 
-43.306501381354366

>  <distance_score>  (520) 
1.7243780272212403

>  <path>  (520) 
/opt/xchem-fragalysis-2/maxwin/BulkDock/SCRATCH/511020/C63290-P98/C63290-P98.minimised.mol

>  <scratch_subdir>  (520) 
/opt/xchem-fragalysis-2/maxwin/BulkDock/SCRATCH/511020/C63290-P98

>  <fragmenstein_runtime>  (520) 
4.0782482624053955

>  <fragmenstein_outcome>  (520) 
too moved

>  <fragmenstein_mode>  (520) 
expansion

>  <fragmenstein_error>  (520) 


$$$$
C63292-P93
     RDKit          3D

 37 39  0  0  0  0  0  0  0  0999 V2000
   15.7883    0.0895   14.3544 C   0  0  0  0  0  0  0  0  0  0  0  0
   14.2655    0.1879   14.2795 C   0  0  0  0  0  0  0  0  0  0  0  0
   13.6865    1.4189   14.8391 N   0  0  0  0  0  0  0  0  0  0  0  0
   14.0747    1.7226   16.2225 C   0  0  0  0  0  0  0  0  0  0  0  0
   13.3544    2.9880   16.7195 C   0  0  0  0  0  0  0  0  0  0  0  0
   13.8172    3.4283   18.1034 C   0  0  0  0  0  0  0  0  0  0  0  0
   13.4572    4.9111   18.1409 C   0  0  0  0  0  0  0  0  0  0  0  0
   13.5072    5.3074   16.6860 C   0  0  0  0  0  0  0  0  0  0  0  0
   13.4221    6.4366   16.2370 O   0  0  0  0  0  0  0  0  0  0  0  0
   13.6067    4.1604   15.9209 N   0  0  0  0  0  0  0  0  0  0  0  0
   13.5176   -1.0054   14.7852 C   0  0  0  0  0  0  0  0  0  0  0  0
   12.3729   -1.5065   14.1907 C   0  0  0  0  0  0  0  0  0  0  0  0
   11.9296   -2.6224   14.8051 O   0  0  0  0  0  0  0  0  0  0  0  0
   12.7684   -2.8403   15.8450 C   0  0  0  0  0  0  0  0  0  0  0  0
   12.6438   -3.8837   16.7490 C   0  0  0  0  0  0  0  0  0  0  0  0
   13.5343   -3.9095   17.8076 C   0  0  0  0  0  0  0  0  0  0  0  0
   14.5538   -2.9721   17.8997 C   0  0  0  0  0  0  0  0  0  0  0  0
   14.6936   -1.9568   16.9464 C   0  0  0  0  0  0  0  0  0  0  0  0
   13.7622   -1.8701   15.8977 C   0  0  0  0  0  0  0  0  0  0  0  0
   16.2533    0.9478   13.8566 H   0  0  0  0  0  0  0  0  0  0  0  0
   16.1412   -0.8172   13.8496 H   0  0  0  0  0  0  0  0  0  0  0  0
   16.1674    0.0597   15.3786 H   0  0  0  0  0  0  0  0  0  0  0  0
   14.0432    0.2390   13.2030 H   0  0  0  0  0  0  0  0  0  0  0  0
   13.9984    2.1974   14.2581 H   0  0  0  0  0  0  0  0  0  0  0  0
   13.8148    0.8981   16.8933 H   0  0  0  0  0  0  0  0  0  0  0  0
   15.1570    1.8845   16.2792 H   0  0  0  0  0  0  0  0  0  0  0  0
   12.2679    2.8279   16.7221 H   0  0  0  0  0  0  0  0  0  0  0  0
   13.3461    2.8595   18.9096 H   0  0  0  0  0  0  0  0  0  0  0  0
   14.9044    3.3185   18.2066 H   0  0  0  0  0  0  0  0  0  0  0  0
   14.1727    5.4884   18.7308 H   0  0  0  0  0  0  0  0  0  0  0  0
   12.4406    5.0656   18.5143 H   0  0  0  0  0  0  0  0  0  0  0  0
   13.3582    4.2416   14.9430 H   0  0  0  0  0  0  0  0  0  0  0  0
   11.7896   -1.1840   13.3431 H   0  0  0  0  0  0  0  0  0  0  0  0
   11.8535   -4.6172   16.6474 H   0  0  0  0  0  0  0  0  0  0  0  0
   13.4254   -4.6629   18.5821 H   0  0  0  0  0  0  0  0  0  0  0  0
   15.2520   -3.0195   18.7335 H   0  0  0  0  0  0  0  0  0  0  0  0
   15.4970   -1.2361   17.0515 H   0  0  0  0  0  0  0  0  0  0  0  0
  1  2  1  0
  2  3  1  0
  3  4  1  0
  4  5  1  0
  5  6  1  0
  6  7  1  0
  7  8  1  0
  8  9  2  0
  8 10  1  0
  2 11  1  0
 11 12  2  0
 12 13  1  0
 13 14  1  0
 14 15  2  0
 15 16  1  0
 16 17  2  0
 17 18  1  0
 18 19  2  0
 10  5  1  0
 19 11  1  0
 19 14  1  0
  1 20  1  0
  1 21  1  0
  1 22  1  0
  2 23  1  0
  3 24  1  0
  4 25  1  0
  4 26  1  0
  5 27  1  0
  6 28  1  0
  6 29  1  0
  7 30  1  0
  7 31  1  0
 10 32  1  0
 12 33  1  0
 15 34  1  0
 16 35  1  0
 17 36  1  0
 18 37  1  0
M  END
>  <Energy>  (521) 
10.402885465112586

>  <compound_id>  (521) 
63292

>  <target_id>  (521) 
1

>  <reference_id>  (521) 
93

>  <inspiration_ids>  (521) 
[93, 98]

>  <energy_score>  (521) 
-32.98315377295852

>  <distance_score>  (521) 
2.016143937877394

>  <path>  (521) 
/opt/xchem-fragalysis-2/maxwin/BulkDock/SCRATCH/511020/C63292-P93/C63292-P93.minimised.mol

>  <scratch_subdir>  (521) 
/opt/xchem-fragalysis-2/maxwin/BulkDock/SCRATCH/511020/C63292-P93

>  <fragmenstein_runtime>  (521) 
1.4265360832214355

>  <fragmenstein_outcome>  (521) 
too moved

>  <fragmenstein_mode>  (521) 
expansion

>  <fragmenstein_error>  (521) 


$$$$
C63292-P98
     RDKit          3D

 37 39  0  0  0  0  0  0  0  0999 V2000
   15.7887    0.0499   14.2257 C   0  0  0  0  0  0  0  0  0  0  0  0
   14.2666    0.1740   14.1804 C   0  0  0  0  0  0  0  0  0  0  0  0
   13.7328    1.4234   14.7438 N   0  0  0  0  0  0  0  0  0  0  0  0
   14.0502    1.6645   16.1558 C   0  0  0  0  0  0  0  0  0  0  0  0
   13.4488    3.0038   16.6177 C   0  0  0  0  0  0  0  0  0  0  0  0
   13.7936    3.3360   18.0655 C   0  0  0  0  0  0  0  0  0  0  0  0
   13.6595    4.8551   18.1243 C   0  0  0  0  0  0  0  0  0  0  0  0
   13.9449    5.2765   16.7047 C   0  0  0  0  0  0  0  0  0  0  0  0
   14.0904    6.4170   16.3031 O   0  0  0  0  0  0  0  0  0  0  0  0
   13.9574    4.1492   15.9065 N   0  0  0  0  0  0  0  0  0  0  0  0
   13.5053   -1.0017   14.7048 C   0  0  0  0  0  0  0  0  0  0  0  0
   12.3340   -1.4784   14.1404 C   0  0  0  0  0  0  0  0  0  0  0  0
   11.8813   -2.5793   14.7766 O   0  0  0  0  0  0  0  0  0  0  0  0
   12.7524   -2.8212   15.7852 C   0  0  0  0  0  0  0  0  0  0  0  0
   12.6458   -3.8721   16.6832 C   0  0  0  0  0  0  0  0  0  0  0  0
   13.6004   -3.9610   17.6803 C   0  0  0  0  0  0  0  0  0  0  0  0
   14.6379   -3.0416   17.7438 C   0  0  0  0  0  0  0  0  0  0  0  0
   14.7444   -2.0006   16.8123 C   0  0  0  0  0  0  0  0  0  0  0  0
   13.7718   -1.8780   15.8042 C   0  0  0  0  0  0  0  0  0  0  0  0
   16.2579    0.8924   13.7049 H   0  0  0  0  0  0  0  0  0  0  0  0
   16.1159   -0.8701   13.7280 H   0  0  0  0  0  0  0  0  0  0  0  0
   16.1895    0.0312   15.2416 H   0  0  0  0  0  0  0  0  0  0  0  0
   14.0254    0.2265   13.1081 H   0  0  0  0  0  0  0  0  0  0  0  0
   14.1200    2.1949   14.2008 H   0  0  0  0  0  0  0  0  0  0  0  0
   13.6396    0.8708   16.7876 H   0  0  0  0  0  0  0  0  0  0  0  0
   15.1355    1.6946   16.3015 H   0  0  0  0  0  0  0  0  0  0  0  0
   12.3586    2.9981   16.4861 H   0  0  0  0  0  0  0  0  0  0  0  0
   13.1413    2.8294   18.7830 H   0  0  0  0  0  0  0  0  0  0  0  0
   14.8292    3.0556   18.2965 H   0  0  0  0  0  0  0  0  0  0  0  0
   14.3765    5.2997   18.8183 H   0  0  0  0  0  0  0  0  0  0  0  0
   12.6398    5.1551   18.3841 H   0  0  0  0  0  0  0  0  0  0  0  0
   13.8511    4.2939   14.9101 H   0  0  0  0  0  0  0  0  0  0  0  0
   11.7378   -1.1503   13.3013 H   0  0  0  0  0  0  0  0  0  0  0  0
   11.8294   -4.5789   16.6115 H   0  0  0  0  0  0  0  0  0  0  0  0
   13.5276   -4.7487   18.4258 H   0  0  0  0  0  0  0  0  0  0  0  0
   15.3819   -3.1281   18.5336 H   0  0  0  0  0  0  0  0  0  0  0  0
   15.5683   -1.3002   16.8926 H   0  0  0  0  0  0  0  0  0  0  0  0
  1  2  1  0
  2  3  1  0
  3  4  1  0
  4  5  1  0
  5  6  1  0
  6  7  1  0
  7  8  1  0
  8  9  2  0
  8 10  1  0
  2 11  1  0
 11 12  2  0
 12 13  1  0
 13 14  1  0
 14 15  2  0
 15 16  1  0
 16 17  2  0
 17 18  1  0
 18 19  2  0
 10  5  1  0
 19 11  1  0
 19 14  1  0
  1 20  1  0
  1 21  1  0
  1 22  1  0
  2 23  1  0
  3 24  1  0
  4 25  1  0
  4 26  1  0
  5 27  1  0
  6 28  1  0
  6 29  1  0
  7 30  1  0
  7 31  1  0
 10 32  1  0
 12 33  1  0
 15 34  1  0
 16 35  1  0
 17 36  1  0
 18 37  1  0
M  END
>  <Energy>  (522) 
9.9947206593914366

>  <compound_id>  (522) 
63292

>  <target_id>  (522) 
1

>  <reference_id>  (522) 
98

>  <inspiration_ids>  (522) 
[93, 98]

>  <energy_score>  (522) 
-33.39131857867942

>  <distance_score>  (522) 
2.0123848807758598

>  <path>  (522) 
/opt/xchem-fragalysis-2/maxwin/BulkDock/SCRATCH/511020/C63292-P98/C63292-P98.minimised.mol

>  <scratch_subdir>  (522) 
/opt/xchem-fragalysis-2/maxwin/BulkDock/SCRATCH/511020/C63292-P98

>  <fragmenstein_runtime>  (522) 
1.3496942520141602

>  <fragmenstein_outcome>  (522) 
too moved

>  <fragmenstein_mode>  (522) 
expansion

>  <fragmenstein_error>  (522) 


$$$$
C63293-P93
     RDKit          3D

 37 39  0  0  0  0  0  0  0  0999 V2000
   13.4693    0.2295   12.8870 C   0  0  0  0  0  0  0  0  0  0  0  0
   14.0567    0.6171   14.2384 C   0  0  0  0  0  0  0  0  0  0  0  0
   13.1671    1.5882   14.8856 N   0  0  0  0  0  0  0  0  0  0  0  0
   13.7985    2.2811   16.0214 C   0  0  0  0  0  0  0  0  0  0  0  0
   12.8543    3.3428   16.5991 C   0  0  0  0  0  0  0  0  0  0  0  0
   13.4610    4.1644   17.7282 C   0  0  0  0  0  0  0  0  0  0  0  0
   12.6253    5.4448   17.7145 C   0  0  0  0  0  0  0  0  0  0  0  0
   12.1989    5.5545   16.2698 C   0  0  0  0  0  0  0  0  0  0  0  0
   11.6606    6.5116   15.7431 O   0  0  0  0  0  0  0  0  0  0  0  0
   12.4776    4.3544   15.6507 N   0  0  0  0  0  0  0  0  0  0  0  0
   14.2792   -0.5319   15.1617 C   0  0  0  0  0  0  0  0  0  0  0  0
   15.4118   -0.6937   15.9297 C   0  0  0  0  0  0  0  0  0  0  0  0
   15.3172   -1.7678   16.7341 O   0  0  0  0  0  0  0  0  0  0  0  0
   14.1466   -2.3668   16.4530 C   0  0  0  0  0  0  0  0  0  0  0  0
   13.7078   -3.5423   17.0259 C   0  0  0  0  0  0  0  0  0  0  0  0
   14.4281   -4.1976   17.9421 F   0  0  0  0  0  0  0  0  0  0  0  0
   12.4881   -4.0269   16.5745 C   0  0  0  0  0  0  0  0  0  0  0  0
   11.7437   -3.3313   15.6270 C   0  0  0  0  0  0  0  0  0  0  0  0
   12.2013   -2.1277   15.0934 C   0  0  0  0  0  0  0  0  0  0  0  0
   13.4516   -1.6433   15.4943 C   0  0  0  0  0  0  0  0  0  0  0  0
   12.4273   -0.0901   12.9727 H   0  0  0  0  0  0  0  0  0  0  0  0
   14.0381   -0.5851   12.4252 H   0  0  0  0  0  0  0  0  0  0  0  0
   13.4862    1.0830   12.1993 H   0  0  0  0  0  0  0  0  0  0  0  0
   15.0204    1.1000   14.0257 H   0  0  0  0  0  0  0  0  0  0  0  0
   12.3145    1.1179   15.1853 H   0  0  0  0  0  0  0  0  0  0  0  0
   14.0508    1.5816   16.8251 H   0  0  0  0  0  0  0  0  0  0  0  0
   14.7234    2.7639   15.6825 H   0  0  0  0  0  0  0  0  0  0  0  0
   11.9258    2.8692   16.9459 H   0  0  0  0  0  0  0  0  0  0  0  0
   13.4266    3.6503   18.6932 H   0  0  0  0  0  0  0  0  0  0  0  0
   14.5084    4.4118   17.5134 H   0  0  0  0  0  0  0  0  0  0  0  0
   11.7334    5.3473   18.3405 H   0  0  0  0  0  0  0  0  0  0  0  0
   13.2124    6.3144   18.0184 H   0  0  0  0  0  0  0  0  0  0  0  0
   12.1307    4.1537   14.7205 H   0  0  0  0  0  0  0  0  0  0  0  0
   16.3231   -0.1196   16.0334 H   0  0  0  0  0  0  0  0  0  0  0  0
   12.1258   -4.9742   16.9445 H   0  0  0  0  0  0  0  0  0  0  0  0
   10.8087   -3.7446   15.2579 H   0  0  0  0  0  0  0  0  0  0  0  0
   11.6011   -1.6205   14.3423 H   0  0  0  0  0  0  0  0  0  0  0  0
  1  2  1  0
  2  3  1  0
  3  4  1  0
  4  5  1  0
  5  6  1  0
  6  7  1  0
  7  8  1  0
  8  9  2  0
  8 10  1  0
  2 11  1  0
 11 12  2  0
 12 13  1  0
 13 14  1  0
 14 15  2  0
 15 16  1  0
 15 17  1  0
 17 18  2  0
 18 19  1  0
 19 20  2  0
 10  5  1  0
 20 11  1  0
 20 14  1  0
  1 21  1  0
  1 22  1  0
  1 23  1  0
  2 24  1  0
  3 25  1  0
  4 26  1  0
  4 27  1  0
  5 28  1  0
  6 29  1  0
  6 30  1  0
  7 31  1  0
  7 32  1  0
 10 33  1  0
 12 34  1  0
 17 35  1  0
 18 36  1  0
 19 37  1  0
M  END
>  <Energy>  (523) 
17.251048585814829

>  <compound_id>  (523) 
63293

>  <target_id>  (523) 
1

>  <reference_id>  (523) 
93

>  <inspiration_ids>  (523) 
[93, 98]

>  <energy_score>  (523) 
-38.41835580063423

>  <distance_score>  (523) 
2.73608937918963

>  <path>  (523) 
/opt/xchem-fragalysis-2/maxwin/BulkDock/SCRATCH/511020/C63293-P93/C63293-P93.minimised.mol

>  <scratch_subdir>  (523) 
/opt/xchem-fragalysis-2/maxwin/BulkDock/SCRATCH/511020/C63293-P93

>  <fragmenstein_runtime>  (523) 
1.626354694366455

>  <fragmenstein_outcome>  (523) 
too moved

>  <fragmenstein_mode>  (523) 
expansion

>  <fragmenstein_error>  (523) 


$$$$
C63293-P98
     RDKit          3D

 37 39  0  0  0  0  0  0  0  0999 V2000
   13.4380    0.1531   12.7225 C   0  0  0  0  0  0  0  0  0  0  0  0
   14.0506    0.5923   14.0482 C   0  0  0  0  0  0  0  0  0  0  0  0
   13.1758    1.5836   14.6851 N   0  0  0  0  0  0  0  0  0  0  0  0
   13.7966    2.2501   15.8424 C   0  0  0  0  0  0  0  0  0  0  0  0
   12.9621    3.4633   16.2722 C   0  0  0  0  0  0  0  0  0  0  0  0
   13.5704    4.2531   17.4237 C   0  0  0  0  0  0  0  0  0  0  0  0
   12.9619    5.6459   17.2552 C   0  0  0  0  0  0  0  0  0  0  0  0
   12.7133    5.7292   15.7684 C   0  0  0  0  0  0  0  0  0  0  0  0
   12.4103    6.7265   15.1391 O   0  0  0  0  0  0  0  0  0  0  0  0
   12.8432    4.4613   15.2447 N   0  0  0  0  0  0  0  0  0  0  0  0
   14.3084   -0.5222   15.0009 C   0  0  0  0  0  0  0  0  0  0  0  0
   15.4684   -0.6568   15.7321 C   0  0  0  0  0  0  0  0  0  0  0  0
   15.3986   -1.6945   16.5849 O   0  0  0  0  0  0  0  0  0  0  0  0
   14.2137   -2.2944   16.3762 C   0  0  0  0  0  0  0  0  0  0  0  0
   13.7819   -3.4282   17.0290 C   0  0  0  0  0  0  0  0  0  0  0  0
   14.5196   -4.0460   17.9567 F   0  0  0  0  0  0  0  0  0  0  0  0
   12.5370   -3.9077   16.6530 C   0  0  0  0  0  0  0  0  0  0  0  0
   11.7715   -3.2693   15.6831 C   0  0  0  0  0  0  0  0  0  0  0  0
   12.2257   -2.1080   15.0650 C   0  0  0  0  0  0  0  0  0  0  0  0
   13.4906   -1.6147   15.4059 C   0  0  0  0  0  0  0  0  0  0  0  0
   13.4159    0.9885   12.0130 H   0  0  0  0  0  0  0  0  0  0  0  0
   12.4080   -0.1962   12.8370 H   0  0  0  0  0  0  0  0  0  0  0  0
   14.0193   -0.6568   12.2677 H   0  0  0  0  0  0  0  0  0  0  0  0
   15.0044    1.0759   13.7960 H   0  0  0  0  0  0  0  0  0  0  0  0
   12.2996    1.1404   14.9575 H   0  0  0  0  0  0  0  0  0  0  0  0
   13.8773    1.5639   16.6926 H   0  0  0  0  0  0  0  0  0  0  0  0
   14.8056    2.5887   15.5755 H   0  0  0  0  0  0  0  0  0  0  0  0
   11.9434    3.1484   16.5350 H   0  0  0  0  0  0  0  0  0  0  0  0
   13.3502    3.8142   18.4014 H   0  0  0  0  0  0  0  0  0  0  0  0
   14.6610    4.3191   17.3207 H   0  0  0  0  0  0  0  0  0  0  0  0
   12.0055    5.7303   17.7799 H   0  0  0  0  0  0  0  0  0  0  0  0
   13.6485    6.4295   17.5837 H   0  0  0  0  0  0  0  0  0  0  0  0
   12.5626    4.2578   14.2926 H   0  0  0  0  0  0  0  0  0  0  0  0
   16.3844   -0.0827   15.7786 H   0  0  0  0  0  0  0  0  0  0  0  0
   12.1606   -4.7985   17.1255 H   0  0  0  0  0  0  0  0  0  0  0  0
   10.8184   -3.6906   15.3763 H   0  0  0  0  0  0  0  0  0  0  0  0
   11.6067   -1.6347   14.3069 H   0  0  0  0  0  0  0  0  0  0  0  0
  1  2  1  0
  2  3  1  0
  3  4  1  0
  4  5  1  0
  5  6  1  0
  6  7  1  0
  7  8  1  0
  8  9  2  0
  8 10  1  0
  2 11  1  0
 11 12  2  0
 12 13  1  0
 13 14  1  0
 14 15  2  0
 15 16  1  0
 15 17  1  0
 17 18  2  0
 18 19  1  0
 19 20  2  0
 10  5  1  0
 20 11  1  0
 20 14  1  0
  1 21  1  0
  1 22  1  0
  1 23  1  0
  2 24  1  0
  3 25  1  0
  4 26  1  0
  4 27  1  0
  5 28  1  0
  6 29  1  0
  6 30  1  0
  7 31  1  0
  7 32  1  0
 10 33  1  0
 12 34  1  0
 17 35  1  0
 18 36  1  0
 19 37  1  0
M  END
>  <Energy>  (524) 
17.320058702411892

>  <compound_id>  (524) 
63293

>  <target_id>  (524) 
1

>  <reference_id>  (524) 
98

>  <inspiration_ids>  (524) 
[93, 98]

>  <energy_score>  (524) 
-38.34934568403668

>  <distance_score>  (524) 
2.7362126413100873

>  <path>  (524) 
/opt/xchem-fragalysis-2/maxwin/BulkDock/SCRATCH/511020/C63293-P98/C63293-P98.minimised.mol

>  <scratch_subdir>  (524) 
/opt/xchem-fragalysis-2/maxwin/BulkDock/SCRATCH/511020/C63293-P98

>  <fragmenstein_runtime>  (524) 
1.9737536907196045

>  <fragmenstein_outcome>  (524) 
too moved

>  <fragmenstein_mode>  (524) 
expansion

>  <fragmenstein_error>  (524) 


$$$$
C63294-P93
     RDKit          3D

 40 42  0  0  0  0  0  0  0  0999 V2000
   11.1056   -0.5715   14.4764 C   0  0  0  0  0  0  0  0  0  0  0  0
   12.2280   -1.2661   15.1056 C   0  0  0  0  0  0  0  0  0  0  0  0
   11.8943   -2.3182   15.8928 O   0  0  0  0  0  0  0  0  0  0  0  0
   13.0467   -2.7483   16.4576 C   0  0  0  0  0  0  0  0  0  0  0  0
   13.1451   -3.7691   17.3877 C   0  0  0  0  0  0  0  0  0  0  0  0
   14.3935   -3.9923   17.9388 C   0  0  0  0  0  0  0  0  0  0  0  0
   15.5065   -3.2911   17.4964 C   0  0  0  0  0  0  0  0  0  0  0  0
   15.3949   -2.2969   16.5233 C   0  0  0  0  0  0  0  0  0  0  0  0
   14.1244   -1.9962   16.0149 C   0  0  0  0  0  0  0  0  0  0  0  0
   13.5920   -1.0292   15.1161 C   0  0  0  0  0  0  0  0  0  0  0  0
   14.3591    0.0389   14.4010 C   0  0  0  0  0  0  0  0  0  0  0  0
   14.3727   -0.1870   12.8871 C   0  0  0  0  0  0  0  0  0  0  0  0
   13.7799    1.3605   14.7000 N   0  0  0  0  0  0  0  0  0  0  0  0
   14.0797    1.8069   16.0645 C   0  0  0  0  0  0  0  0  0  0  0  0
   13.4352    3.1652   16.3349 C   0  0  0  0  0  0  0  0  0  0  0  0
   13.6700    3.6422   17.7632 C   0  0  0  0  0  0  0  0  0  0  0  0
   13.5649    5.0647   17.6574 N   0  0  0  0  0  0  0  0  0  0  0  0
   13.8101    5.5151   16.3793 C   0  0  0  0  0  0  0  0  0  0  0  0
   13.9062    6.6835   16.0493 O   0  0  0  0  0  0  0  0  0  0  0  0
   13.9891    4.3160   15.4836 C   0  0  0  0  0  0  0  0  0  0  0  0
   11.0247    0.4452   14.8768 H   0  0  0  0  0  0  0  0  0  0  0  0
   11.2543   -0.4814   13.4005 H   0  0  0  0  0  0  0  0  0  0  0  0
   10.1579   -1.0634   14.7083 H   0  0  0  0  0  0  0  0  0  0  0  0
   12.2786   -4.3350   17.6941 H   0  0  0  0  0  0  0  0  0  0  0  0
   14.5085   -4.7159   18.7400 H   0  0  0  0  0  0  0  0  0  0  0  0
   16.4817   -3.5035   17.9305 H   0  0  0  0  0  0  0  0  0  0  0  0
   16.2751   -1.7484   16.2035 H   0  0  0  0  0  0  0  0  0  0  0  0
   15.4072    0.0282   14.7263 H   0  0  0  0  0  0  0  0  0  0  0  0
   13.3752   -0.0887   12.4488 H   0  0  0  0  0  0  0  0  0  0  0  0
   15.0240    0.5414   12.3909 H   0  0  0  0  0  0  0  0  0  0  0  0
   14.7451   -1.1886   12.6437 H   0  0  0  0  0  0  0  0  0  0  0  0
   14.1570    2.0342   14.0346 H   0  0  0  0  0  0  0  0  0  0  0  0
   13.6899    1.0918   16.7981 H   0  0  0  0  0  0  0  0  0  0  0  0
   15.1652    1.8721   16.2087 H   0  0  0  0  0  0  0  0  0  0  0  0
   12.3504    3.0993   16.1658 H   0  0  0  0  0  0  0  0  0  0  0  0
   12.9223    3.2637   18.4637 H   0  0  0  0  0  0  0  0  0  0  0  0
   14.6729    3.4023   18.1315 H   0  0  0  0  0  0  0  0  0  0  0  0
   13.5167    5.7112   18.4358 H   0  0  0  0  0  0  0  0  0  0  0  0
   15.0549    4.1980   15.2638 H   0  0  0  0  0  0  0  0  0  0  0  0
   13.4220    4.4408   14.5574 H   0  0  0  0  0  0  0  0  0  0  0  0
  1  2  1  0
  2  3  1  0
  3  4  1  0
  4  5  2  0
  5  6  1  0
  6  7  2  0
  7  8  1  0
  8  9  2  0
  9 10  1  0
 10 11  1  0
 11 12  1  0
 11 13  1  0
 13 14  1  0
 14 15  1  0
 15 16  1  0
 16 17  1  0
 17 18  1  0
 18 19  2  0
 18 20  1  0
 10  2  2  0
 20 15  1  0
  9  4  1  0
  1 21  1  0
  1 22  1  0
  1 23  1  0
  5 24  1  0
  6 25  1  0
  7 26  1  0
  8 27  1  0
 11 28  1  0
 12 29  1  0
 12 30  1  0
 12 31  1  0
 13 32  1  0
 14 33  1  0
 14 34  1  0
 15 35  1  0
 16 36  1  0
 16 37  1  0
 17 38  1  0
 20 39  1  0
 20 40  1  0
M  END
>  <Energy>  (525) 
-10.874099410087361

>  <compound_id>  (525) 
63294

>  <target_id>  (525) 
1

>  <reference_id>  (525) 
93

>  <inspiration_ids>  (525) 
[93, 98]

>  <energy_score>  (525) 
-36.7707684657278

>  <distance_score>  (525) 
2.1429310175938237

>  <path>  (525) 
/opt/xchem-fragalysis-2/maxwin/BulkDock/SCRATCH/511020/C63294-P93/C63294-P93.minimised.mol

>  <scratch_subdir>  (525) 
/opt/xchem-fragalysis-2/maxwin/BulkDock/SCRATCH/511020/C63294-P93

>  <fragmenstein_runtime>  (525) 
2.5612633228302

>  <fragmenstein_outcome>  (525) 
too moved

>  <fragmenstein_mode>  (525) 
expansion

>  <fragmenstein_error>  (525) 


$$$$
C63294-P98
     RDKit          3D

 40 42  0  0  0  0  0  0  0  0999 V2000
   11.9451   -0.9985   13.4905 C   0  0  0  0  0  0  0  0  0  0  0  0
   12.7036   -1.4735   14.6413 C   0  0  0  0  0  0  0  0  0  0  0  0
   12.1437   -2.5247   15.2831 O   0  0  0  0  0  0  0  0  0  0  0  0
   13.0195   -2.8864   16.2420 C   0  0  0  0  0  0  0  0  0  0  0  0
   12.8529   -3.9722   17.0779 C   0  0  0  0  0  0  0  0  0  0  0  0
   13.8178   -4.1753   18.0463 C   0  0  0  0  0  0  0  0  0  0  0  0
   14.9254   -3.3394   18.1258 C   0  0  0  0  0  0  0  0  0  0  0  0
   15.0972   -2.2683   17.2404 C   0  0  0  0  0  0  0  0  0  0  0  0
   14.1101   -2.0329   16.2729 C   0  0  0  0  0  0  0  0  0  0  0  0
   13.9045   -1.0989   15.2157 C   0  0  0  0  0  0  0  0  0  0  0  0
   14.8180    0.0097   14.8030 C   0  0  0  0  0  0  0  0  0  0  0  0
   15.4580   -0.2534   13.4355 C   0  0  0  0  0  0  0  0  0  0  0  0
   14.0826    1.2866   14.7862 N   0  0  0  0  0  0  0  0  0  0  0  0
   13.8643    1.8108   16.1377 C   0  0  0  0  0  0  0  0  0  0  0  0
   13.1660    3.1685   16.0847 C   0  0  0  0  0  0  0  0  0  0  0  0
   12.8543    3.7117   17.4743 C   0  0  0  0  0  0  0  0  0  0  0  0
   12.8100    5.1266   17.2768 N   0  0  0  0  0  0  0  0  0  0  0  0
   13.5235    5.5221   16.1665 C   0  0  0  0  0  0  0  0  0  0  0  0
   13.7602    6.6759   15.8574 O   0  0  0  0  0  0  0  0  0  0  0  0
   14.0012    4.2874   15.4464 C   0  0  0  0  0  0  0  0  0  0  0  0
   12.4757   -0.2277   12.9274 H   0  0  0  0  0  0  0  0  0  0  0  0
   11.7719   -1.8393   12.8194 H   0  0  0  0  0  0  0  0  0  0  0  0
   11.0047   -0.5575   13.8284 H   0  0  0  0  0  0  0  0  0  0  0  0
   11.9817   -4.6044   16.9836 H   0  0  0  0  0  0  0  0  0  0  0  0
   13.7009   -4.9858   18.7606 H   0  0  0  0  0  0  0  0  0  0  0  0
   15.6758   -3.5197   18.8936 H   0  0  0  0  0  0  0  0  0  0  0  0
   15.9774   -1.6377   17.3142 H   0  0  0  0  0  0  0  0  0  0  0  0
   15.6496    0.0871   15.5154 H   0  0  0  0  0  0  0  0  0  0  0  0
   14.7217   -0.2916   12.6265 H   0  0  0  0  0  0  0  0  0  0  0  0
   16.1820    0.5313   13.1881 H   0  0  0  0  0  0  0  0  0  0  0  0
   15.9931   -1.2102   13.4366 H   0  0  0  0  0  0  0  0  0  0  0  0
   14.6232    1.9606   14.2452 H   0  0  0  0  0  0  0  0  0  0  0  0
   13.2390    1.1195   16.7137 H   0  0  0  0  0  0  0  0  0  0  0  0
   14.8212    1.9107   16.6652 H   0  0  0  0  0  0  0  0  0  0  0  0
   12.2221    3.0782   15.5278 H   0  0  0  0  0  0  0  0  0  0  0  0
   11.8937    3.3607   17.8608 H   0  0  0  0  0  0  0  0  0  0  0  0
   13.6434    3.4947   18.2018 H   0  0  0  0  0  0  0  0  0  0  0  0
   12.5004    5.8140   17.9540 H   0  0  0  0  0  0  0  0  0  0  0  0
   15.0732    4.1665   15.6319 H   0  0  0  0  0  0  0  0  0  0  0  0
   13.8092    4.3708   14.3735 H   0  0  0  0  0  0  0  0  0  0  0  0
  1  2  1  0
  2  3  1  0
  3  4  1  0
  4  5  2  0
  5  6  1  0
  6  7  2  0
  7  8  1  0
  8  9  2  0
  9 10  1  0
 10 11  1  0
 11 12  1  0
 11 13  1  0
 13 14  1  0
 14 15  1  0
 15 16  1  0
 16 17  1  0
 17 18  1  0
 18 19  2  0
 18 20  1  0
 10  2  2  0
 20 15  1  0
  9  4  1  0
  1 21  1  0
  1 22  1  0
  1 23  1  0
  5 24  1  0
  6 25  1  0
  7 26  1  0
  8 27  1  0
 11 28  1  0
 12 29  1  0
 12 30  1  0
 12 31  1  0
 13 32  1  0
 14 33  1  0
 14 34  1  0
 15 35  1  0
 16 36  1  0
 16 37  1  0
 17 38  1  0
 20 39  1  0
 20 40  1  0
M  END
>  <Energy>  (526) 
-10.614659755187356

>  <compound_id>  (526) 
63294

>  <target_id>  (526) 
1

>  <reference_id>  (526) 
98

>  <inspiration_ids>  (526) 
[93, 98]

>  <energy_score>  (526) 
-36.51132881082907

>  <distance_score>  (526) 
2.125524989703972

>  <path>  (526) 
/opt/xchem-fragalysis-2/maxwin/BulkDock/SCRATCH/511020/C63294-P98/C63294-P98.minimised.mol

>  <scratch_subdir>  (526) 
/opt/xchem-fragalysis-2/maxwin/BulkDock/SCRATCH/511020/C63294-P98

>  <fragmenstein_runtime>  (526) 
2.5849101543426514

>  <fragmenstein_outcome>  (526) 
too moved

>  <fragmenstein_mode>  (526) 
expansion

>  <fragmenstein_error>  (526) 


$$$$
C63295-P93
     RDKit          3D

 43 45  0  0  0  0  0  0  0  0999 V2000
   14.6534   -3.9586   18.3301 C   0  0  0  0  0  0  0  0  0  0  0  0
   13.8068   -3.3847   17.2487 C   0  0  0  0  0  0  0  0  0  0  0  0
   12.6584   -4.0123   16.7593 C   0  0  0  0  0  0  0  0  0  0  0  0
   11.8644   -3.4450   15.7679 C   0  0  0  0  0  0  0  0  0  0  0  0
   12.2042   -2.2316   15.1826 C   0  0  0  0  0  0  0  0  0  0  0  0
   13.3853   -1.6024   15.5850 C   0  0  0  0  0  0  0  0  0  0  0  0
   14.1054   -0.4277   15.2189 C   0  0  0  0  0  0  0  0  0  0  0  0
   13.8112    0.6511   14.2362 C   0  0  0  0  0  0  0  0  0  0  0  0
   12.8909    0.2591   13.0910 C   0  0  0  0  0  0  0  0  0  0  0  0
   13.2315    1.7689   14.9978 N   0  0  0  0  0  0  0  0  0  0  0  0
   14.2607    2.7613   15.3336 C   0  0  0  0  0  0  0  0  0  0  0  0
   13.7715    3.9220   16.2052 C   0  0  0  0  0  0  0  0  0  0  0  0
   13.4347    3.4931   17.6334 C   0  0  0  0  0  0  0  0  0  0  0  0
   13.0418    4.7311   18.4329 C   0  0  0  0  0  0  0  0  0  0  0  0
   11.8099    5.3586   17.8030 C   0  0  0  0  0  0  0  0  0  0  0  0
   11.9619    5.5801   16.3792 N   0  0  0  0  0  0  0  0  0  0  0  0
   12.6295    4.7004   15.5626 C   0  0  0  0  0  0  0  0  0  0  0  0
   12.3587    4.6499   14.3648 O   0  0  0  0  0  0  0  0  0  0  0  0
   15.2304   -0.4468   16.0137 C   0  0  0  0  0  0  0  0  0  0  0  0
   15.2208   -1.4820   16.8664 O   0  0  0  0  0  0  0  0  0  0  0  0
   14.1194   -2.2038   16.5953 C   0  0  0  0  0  0  0  0  0  0  0  0
   14.0541   -4.5721   19.0105 H   0  0  0  0  0  0  0  0  0  0  0  0
   15.1115   -3.1662   18.9313 H   0  0  0  0  0  0  0  0  0  0  0  0
   15.4509   -4.5714   17.9009 H   0  0  0  0  0  0  0  0  0  0  0  0
   12.3704   -4.9751   17.1547 H   0  0  0  0  0  0  0  0  0  0  0  0
   10.9800   -3.9647   15.4139 H   0  0  0  0  0  0  0  0  0  0  0  0
   11.5702   -1.8279   14.4000 H   0  0  0  0  0  0  0  0  0  0  0  0
   14.7558    0.9525   13.7606 H   0  0  0  0  0  0  0  0  0  0  0  0
   13.2547   -0.6556   12.6121 H   0  0  0  0  0  0  0  0  0  0  0  0
   12.8636    1.0481   12.3303 H   0  0  0  0  0  0  0  0  0  0  0  0
   11.8592    0.0976   13.4185 H   0  0  0  0  0  0  0  0  0  0  0  0
   12.5379    2.2471   14.4152 H   0  0  0  0  0  0  0  0  0  0  0  0
   15.1031    2.2922   15.8516 H   0  0  0  0  0  0  0  0  0  0  0  0
   14.6600    3.1789   14.3993 H   0  0  0  0  0  0  0  0  0  0  0  0
   14.6062    4.6371   16.2602 H   0  0  0  0  0  0  0  0  0  0  0  0
   12.6134    2.7665   17.6418 H   0  0  0  0  0  0  0  0  0  0  0  0
   14.3028    3.0153   18.1016 H   0  0  0  0  0  0  0  0  0  0  0  0
   12.8498    4.4710   19.4776 H   0  0  0  0  0  0  0  0  0  0  0  0
   13.8697    5.4511   18.4315 H   0  0  0  0  0  0  0  0  0  0  0  0
   11.5806    6.3221   18.2681 H   0  0  0  0  0  0  0  0  0  0  0  0
   10.9400    4.7050   17.9305 H   0  0  0  0  0  0  0  0  0  0  0  0
   11.2079    6.0567   15.8989 H   0  0  0  0  0  0  0  0  0  0  0  0
   16.0833    0.2107   16.1039 H   0  0  0  0  0  0  0  0  0  0  0  0
  1  2  1  0
  2  3  2  0
  3  4  1  0
  4  5  2  0
  5  6  1  0
  6  7  1  0
  7  8  1  0
  8  9  1  0
  8 10  1  0
 10 11  1  0
 11 12  1  0
 12 13  1  0
 13 14  1  0
 14 15  1  0
 15 16  1  0
 16 17  1  0
 17 18  2  0
  7 19  2  0
 19 20  1  0
 20 21  1  0
 21  2  1  0
 21  6  2  0
 17 12  1  0
  1 22  1  0
  1 23  1  0
  1 24  1  0
  3 25  1  0
  4 26  1  0
  5 27  1  0
  8 28  1  0
  9 29  1  0
  9 30  1  0
  9 31  1  0
 10 32  1  0
 11 33  1  0
 11 34  1  0
 12 35  1  0
 13 36  1  0
 13 37  1  0
 14 38  1  0
 14 39  1  0
 15 40  1  0
 15 41  1  0
 16 42  1  0
 19 43  1  0
M  END
>  <Energy>  (527) 
5.5040761721373332

>  <compound_id>  (527) 
63295

>  <target_id>  (527) 
1

>  <reference_id>  (527) 
93

>  <inspiration_ids>  (527) 
[93, 98]

>  <energy_score>  (527) 
-41.62027507465902

>  <distance_score>  (527) 
2.6616671579403697

>  <path>  (527) 
/opt/xchem-fragalysis-2/maxwin/BulkDock/SCRATCH/511020/C63295-P93/C63295-P93.minimised.mol

>  <scratch_subdir>  (527) 
/opt/xchem-fragalysis-2/maxwin/BulkDock/SCRATCH/511020/C63295-P93

>  <fragmenstein_runtime>  (527) 
2.1074485778808594

>  <fragmenstein_outcome>  (527) 
too moved

>  <fragmenstein_mode>  (527) 
expansion

>  <fragmenstein_error>  (527) 


$$$$
C63295-P98
     RDKit          3D

 43 45  0  0  0  0  0  0  0  0999 V2000
   14.5894   -4.0501   18.1402 C   0  0  0  0  0  0  0  0  0  0  0  0
   13.7647   -3.3778   17.0974 C   0  0  0  0  0  0  0  0  0  0  0  0
   12.5413   -3.8933   16.6597 C   0  0  0  0  0  0  0  0  0  0  0  0
   11.7678   -3.2759   15.6816 C   0  0  0  0  0  0  0  0  0  0  0  0
   12.1871   -2.0971   15.0817 C   0  0  0  0  0  0  0  0  0  0  0  0
   13.4303   -1.5718   15.4426 C   0  0  0  0  0  0  0  0  0  0  0  0
   14.2245   -0.4608   15.0416 C   0  0  0  0  0  0  0  0  0  0  0  0
   13.9628    0.6314   14.0666 C   0  0  0  0  0  0  0  0  0  0  0  0
   13.2808    0.1767   12.7786 C   0  0  0  0  0  0  0  0  0  0  0  0
   13.1485    1.6744   14.7178 N   0  0  0  0  0  0  0  0  0  0  0  0
   13.9188    2.4318   15.7221 C   0  0  0  0  0  0  0  0  0  0  0  0
   13.1969    3.6954   16.2223 C   0  0  0  0  0  0  0  0  0  0  0  0
   11.8998    3.3782   16.9713 C   0  0  0  0  0  0  0  0  0  0  0  0
   11.2267    4.6708   17.4193 C   0  0  0  0  0  0  0  0  0  0  0  0
   10.9301    5.5349   16.2068 C   0  0  0  0  0  0  0  0  0  0  0  0
   12.0885    5.7211   15.3609 N   0  0  0  0  0  0  0  0  0  0  0  0
   12.9784    4.7093   15.1041 C   0  0  0  0  0  0  0  0  0  0  0  0
   13.6141    4.7088   14.0527 O   0  0  0  0  0  0  0  0  0  0  0  0
   15.3779   -0.5654   15.7866 C   0  0  0  0  0  0  0  0  0  0  0  0
   15.3227   -1.5993   16.6427 O   0  0  0  0  0  0  0  0  0  0  0  0
   14.1540   -2.2305   16.4255 C   0  0  0  0  0  0  0  0  0  0  0  0
   13.9504   -4.4934   18.9113 H   0  0  0  0  0  0  0  0  0  0  0  0
   15.2585   -3.3406   18.6373 H   0  0  0  0  0  0  0  0  0  0  0  0
   15.1951   -4.8403   17.6870 H   0  0  0  0  0  0  0  0  0  0  0  0
   12.1679   -4.8053   17.0991 H   0  0  0  0  0  0  0  0  0  0  0  0
   10.8348   -3.7276   15.3588 H   0  0  0  0  0  0  0  0  0  0  0  0
   11.5647   -1.6332   14.3231 H   0  0  0  0  0  0  0  0  0  0  0  0
   14.9228    1.0666   13.7547 H   0  0  0  0  0  0  0  0  0  0  0  0
   13.7907   -0.6908   12.3451 H   0  0  0  0  0  0  0  0  0  0  0  0
   13.2956    0.9797   12.0322 H   0  0  0  0  0  0  0  0  0  0  0  0
   12.2315   -0.0891   12.9359 H   0  0  0  0  0  0  0  0  0  0  0  0
   12.8792    2.3358   13.9842 H   0  0  0  0  0  0  0  0  0  0  0  0
   14.1217    1.7990   16.5932 H   0  0  0  0  0  0  0  0  0  0  0  0
   14.8860    2.7333   15.2995 H   0  0  0  0  0  0  0  0  0  0  0  0
   13.8792    4.1910   16.9284 H   0  0  0  0  0  0  0  0  0  0  0  0
   11.2088    2.8086   16.3383 H   0  0  0  0  0  0  0  0  0  0  0  0
   12.1227    2.7659   17.8511 H   0  0  0  0  0  0  0  0  0  0  0  0
   10.2996    4.4498   17.9579 H   0  0  0  0  0  0  0  0  0  0  0  0
   11.8865    5.2091   18.1107 H   0  0  0  0  0  0  0  0  0  0  0  0
   10.5738    6.5243   16.5093 H   0  0  0  0  0  0  0  0  0  0  0  0
   10.1537    5.0680   15.5901 H   0  0  0  0  0  0  0  0  0  0  0  0
   11.9868    6.3498   14.5722 H   0  0  0  0  0  0  0  0  0  0  0  0
   16.2794    0.0295   15.8389 H   0  0  0  0  0  0  0  0  0  0  0  0
  1  2  1  0
  2  3  2  0
  3  4  1  0
  4  5  2  0
  5  6  1  0
  6  7  1  0
  7  8  1  0
  8  9  1  0
  8 10  1  0
 10 11  1  0
 11 12  1  0
 12 13  1  0
 13 14  1  0
 14 15  1  0
 15 16  1  0
 16 17  1  0
 17 18  2  0
  7 19  2  0
 19 20  1  0
 20 21  1  0
 21  2  1  0
 21  6  2  0
 17 12  1  0
  1 22  1  0
  1 23  1  0
  1 24  1  0
  3 25  1  0
  4 26  1  0
  5 27  1  0
  8 28  1  0
  9 29  1  0
  9 30  1  0
  9 31  1  0
 10 32  1  0
 11 33  1  0
 11 34  1  0
 12 35  1  0
 13 36  1  0
 13 37  1  0
 14 38  1  0
 14 39  1  0
 15 40  1  0
 15 41  1  0
 16 42  1  0
 19 43  1  0
M  END
>  <Energy>  (528) 
2.476989575196971

>  <compound_id>  (528) 
63295

>  <target_id>  (528) 
1

>  <reference_id>  (528) 
98

>  <inspiration_ids>  (528) 
[93, 98]

>  <energy_score>  (528) 
-44.647361671598844

>  <distance_score>  (528) 
2.6663235387928212

>  <path>  (528) 
/opt/xchem-fragalysis-2/maxwin/BulkDock/SCRATCH/511020/C63295-P98/C63295-P98.minimised.mol

>  <scratch_subdir>  (528) 
/opt/xchem-fragalysis-2/maxwin/BulkDock/SCRATCH/511020/C63295-P98

>  <fragmenstein_runtime>  (528) 
2.3365700244903564

>  <fragmenstein_outcome>  (528) 
too moved

>  <fragmenstein_mode>  (528) 
expansion

>  <fragmenstein_error>  (528) 


$$$$
C63297-P93
     RDKit          3D

 43 44  0  0  0  0  0  0  0  0999 V2000
   10.2013    0.2620   15.6690 C   0  0  0  0  0  0  0  0  0  0  0  0
   10.8877   -1.0075   15.9031 N   0  0  0  0  0  0  0  0  0  0  0  0
   11.5861   -1.4585   14.6841 C   0  0  0  0  0  0  0  0  0  0  0  0
   11.6499   -2.9712   14.6604 C   0  0  0  0  0  0  0  0  0  0  0  0
   12.9148   -0.8155   14.4808 C   0  0  0  0  0  0  0  0  0  0  0  0
   13.6226    0.0903   15.2390 C   0  0  0  0  0  0  0  0  0  0  0  0
   14.6699    0.4474   14.4387 N   0  0  0  0  0  0  0  0  0  0  0  0
   15.7376    1.3877   14.7107 C   0  0  0  0  0  0  0  0  0  0  0  0
   17.1206    0.9030   14.2838 C   0  0  0  0  0  0  0  0  0  0  0  0
   17.5792   -0.2303   15.1851 C   0  0  0  0  0  0  0  0  0  0  0  0
   18.2561   -0.0433   16.1156 O   0  0  0  0  0  0  0  0  0  0  0  0
   16.9249   -1.5327   14.6670 N   0  0  0  0  0  0  0  0  0  0  0  0
   16.8909   -2.8535   15.2392 C   0  0  0  0  0  0  0  0  0  0  0  0
   16.4284   -2.8303   16.6977 C   0  0  0  0  0  0  0  0  0  0  0  0
   15.0733   -2.1879   16.9127 C   0  0  0  0  0  0  0  0  0  0  0  0
   14.5759   -2.7933   18.2095 C   0  0  0  0  0  0  0  0  0  0  0  0
   15.2836   -4.1143   18.2577 C   0  0  0  0  0  0  0  0  0  0  0  0
   15.0662   -5.0216   19.0417 O   0  0  0  0  0  0  0  0  0  0  0  0
   16.2417   -4.1371   17.2680 N   0  0  0  0  0  0  0  0  0  0  0  0
   14.6311   -0.2031   13.2647 N   0  0  0  0  0  0  0  0  0  0  0  0
   13.5722   -0.9943   13.2856 N   0  0  0  0  0  0  0  0  0  0  0  0
    9.6624    0.5663   16.5707 H   0  0  0  0  0  0  0  0  0  0  0  0
    9.4522    0.1611   14.8769 H   0  0  0  0  0  0  0  0  0  0  0  0
   10.8915    1.0691   15.4069 H   0  0  0  0  0  0  0  0  0  0  0  0
   11.5835   -0.9224   16.6417 H   0  0  0  0  0  0  0  0  0  0  0  0
   11.0169   -1.1162   13.8303 H   0  0  0  0  0  0  0  0  0  0  0  0
   12.3392   -3.3643   15.4146 H   0  0  0  0  0  0  0  0  0  0  0  0
   10.6668   -3.4105   14.8492 H   0  0  0  0  0  0  0  0  0  0  0  0
   11.9750   -3.3162   13.6750 H   0  0  0  0  0  0  0  0  0  0  0  0
   13.4551    0.5388   16.2066 H   0  0  0  0  0  0  0  0  0  0  0  0
   15.4795    2.3056   14.1708 H   0  0  0  0  0  0  0  0  0  0  0  0
   15.7170    1.6064   15.7846 H   0  0  0  0  0  0  0  0  0  0  0  0
   17.8432    1.7211   14.3903 H   0  0  0  0  0  0  0  0  0  0  0  0
   17.1580    0.5951   13.2333 H   0  0  0  0  0  0  0  0  0  0  0  0
   16.4629   -1.3510   13.7745 H   0  0  0  0  0  0  0  0  0  0  0  0
   17.8994   -3.2745   15.1706 H   0  0  0  0  0  0  0  0  0  0  0  0
   16.2264   -3.4655   14.6221 H   0  0  0  0  0  0  0  0  0  0  0  0
   17.1768   -2.3205   17.3182 H   0  0  0  0  0  0  0  0  0  0  0  0
   14.3930   -2.4676   16.1047 H   0  0  0  0  0  0  0  0  0  0  0  0
   15.1430   -1.1020   16.9868 H   0  0  0  0  0  0  0  0  0  0  0  0
   13.4957   -2.9481   18.1885 H   0  0  0  0  0  0  0  0  0  0  0  0
   14.8672   -2.1964   19.0783 H   0  0  0  0  0  0  0  0  0  0  0  0
   16.9694   -4.8395   17.3351 H   0  0  0  0  0  0  0  0  0  0  0  0
  1  2  1  0
  2  3  1  0
  3  4  1  0
  3  5  1  0
  5  6  2  0
  6  7  1  0
  7  8  1  0
  8  9  1  0
  9 10  1  0
 10 11  2  0
 10 12  1  0
 12 13  1  0
 13 14  1  0
 14 15  1  0
 15 16  1  0
 16 17  1  0
 17 18  2  0
 17 19  1  0
  7 20  1  0
 20 21  2  0
 21  5  1  0
 19 14  1  0
  1 22  1  0
  1 23  1  0
  1 24  1  0
  2 25  1  0
  3 26  1  0
  4 27  1  0
  4 28  1  0
  4 29  1  0
  6 30  1  0
  8 31  1  0
  8 32  1  0
  9 33  1  0
  9 34  1  0
 12 35  1  0
 13 36  1  0
 13 37  1  0
 14 38  1  0
 15 39  1  0
 15 40  1  0
 16 41  1  0
 16 42  1  0
 19 43  1  0
M  END
>  <Energy>  (529) 
-15.55035509882282

>  <compound_id>  (529) 
63297

>  <target_id>  (529) 
1

>  <reference_id>  (529) 
93

>  <inspiration_ids>  (529) 
[93, 98]

>  <energy_score>  (529) 
-36.62742569211185

>  <distance_score>  (529) 
3.1110740762141

>  <path>  (529) 
/opt/xchem-fragalysis-2/maxwin/BulkDock/SCRATCH/511020/C63297-P93/C63297-P93.minimised.mol

>  <scratch_subdir>  (529) 
/opt/xchem-fragalysis-2/maxwin/BulkDock/SCRATCH/511020/C63297-P93

>  <fragmenstein_runtime>  (529) 
3.4017205238342285

>  <fragmenstein_outcome>  (529) 
too moved

>  <fragmenstein_mode>  (529) 
expansion

>  <fragmenstein_error>  (529) 


$$$$
C63297-P98
     RDKit          3D

 43 44  0  0  0  0  0  0  0  0999 V2000
    9.1155   -0.7805   15.3236 C   0  0  0  0  0  0  0  0  0  0  0  0
   10.4831   -0.8451   15.8416 N   0  0  0  0  0  0  0  0  0  0  0  0
   11.4117   -1.3110   14.7807 C   0  0  0  0  0  0  0  0  0  0  0  0
   11.6763   -2.8016   14.8491 C   0  0  0  0  0  0  0  0  0  0  0  0
   12.6527   -0.4794   14.7838 C   0  0  0  0  0  0  0  0  0  0  0  0
   13.3323    0.1591   15.7985 C   0  0  0  0  0  0  0  0  0  0  0  0
   14.2608    0.9202   15.1469 N   0  0  0  0  0  0  0  0  0  0  0  0
   15.3060    1.7608   15.6969 C   0  0  0  0  0  0  0  0  0  0  0  0
   16.6905    1.4825   15.1080 C   0  0  0  0  0  0  0  0  0  0  0  0
   17.1860    0.1277   15.5825 C   0  0  0  0  0  0  0  0  0  0  0  0
   17.9158    0.0162   16.4851 O   0  0  0  0  0  0  0  0  0  0  0  0
   16.4694   -0.9500   14.7332 N   0  0  0  0  0  0  0  0  0  0  0  0
   16.4290   -2.3811   14.8799 C   0  0  0  0  0  0  0  0  0  0  0  0
   16.2578   -2.8060   16.3395 C   0  0  0  0  0  0  0  0  0  0  0  0
   15.1167   -2.1389   17.0874 C   0  0  0  0  0  0  0  0  0  0  0  0
   14.8915   -3.0580   18.2735 C   0  0  0  0  0  0  0  0  0  0  0  0
   15.2435   -4.3988   17.6944 C   0  0  0  0  0  0  0  0  0  0  0  0
   14.9905   -5.4889   18.1758 O   0  0  0  0  0  0  0  0  0  0  0  0
   15.9322   -4.1947   16.5166 N   0  0  0  0  0  0  0  0  0  0  0  0
   14.1746    0.7621   13.8150 N   0  0  0  0  0  0  0  0  0  0  0  0
   13.2074   -0.1070   13.5806 N   0  0  0  0  0  0  0  0  0  0  0  0
    8.7462   -1.7636   15.0211 H   0  0  0  0  0  0  0  0  0  0  0  0
    9.0450   -0.0816   14.4856 H   0  0  0  0  0  0  0  0  0  0  0  0
    8.4513   -0.4056   16.1078 H   0  0  0  0  0  0  0  0  0  0  0  0
   10.7392    0.1243   16.0424 H   0  0  0  0  0  0  0  0  0  0  0  0
   10.9863   -1.0787   13.8089 H   0  0  0  0  0  0  0  0  0  0  0  0
   10.7449   -3.3725   14.8153 H   0  0  0  0  0  0  0  0  0  0  0  0
   12.2865   -3.1107   13.9967 H   0  0  0  0  0  0  0  0  0  0  0  0
   12.2043   -3.0817   15.7663 H   0  0  0  0  0  0  0  0  0  0  0  0
   13.2191    0.1668   16.8711 H   0  0  0  0  0  0  0  0  0  0  0  0
   15.0090    2.7946   15.4886 H   0  0  0  0  0  0  0  0  0  0  0  0
   15.3070    1.6175   16.7835 H   0  0  0  0  0  0  0  0  0  0  0  0
   17.3991    2.2397   15.4643 H   0  0  0  0  0  0  0  0  0  0  0  0
   16.7066    1.5303   14.0139 H   0  0  0  0  0  0  0  0  0  0  0  0
   15.9665   -0.5013   13.9660 H   0  0  0  0  0  0  0  0  0  0  0  0
   17.3562   -2.7924   14.4680 H   0  0  0  0  0  0  0  0  0  0  0  0
   15.6003   -2.7407   14.2639 H   0  0  0  0  0  0  0  0  0  0  0  0
   17.1972   -2.6301   16.8804 H   0  0  0  0  0  0  0  0  0  0  0  0
   14.2163   -2.1528   16.4714 H   0  0  0  0  0  0  0  0  0  0  0  0
   15.3360   -1.1171   17.4036 H   0  0  0  0  0  0  0  0  0  0  0  0
   13.8546   -3.0442   18.6131 H   0  0  0  0  0  0  0  0  0  0  0  0
   15.5709   -2.8340   19.1010 H   0  0  0  0  0  0  0  0  0  0  0  0
   16.4236   -4.9709   16.0889 H   0  0  0  0  0  0  0  0  0  0  0  0
  1  2  1  0
  2  3  1  0
  3  4  1  0
  3  5  1  0
  5  6  2  0
  6  7  1  0
  7  8  1  0
  8  9  1  0
  9 10  1  0
 10 11  2  0
 10 12  1  0
 12 13  1  0
 13 14  1  0
 14 15  1  0
 15 16  1  0
 16 17  1  0
 17 18  2  0
 17 19  1  0
  7 20  1  0
 20 21  2  0
 21  5  1  0
 19 14  1  0
  1 22  1  0
  1 23  1  0
  1 24  1  0
  2 25  1  0
  3 26  1  0
  4 27  1  0
  4 28  1  0
  4 29  1  0
  6 30  1  0
  8 31  1  0
  8 32  1  0
  9 33  1  0
  9 34  1  0
 12 35  1  0
 13 36  1  0
 13 37  1  0
 14 38  1  0
 15 39  1  0
 15 40  1  0
 16 41  1  0
 16 42  1  0
 19 43  1  0
M  END
>  <Energy>  (530) 
-14.46136715920502

>  <compound_id>  (530) 
63297

>  <target_id>  (530) 
1

>  <reference_id>  (530) 
98

>  <inspiration_ids>  (530) 
[93, 98]

>  <energy_score>  (530) 
-35.538437752492754

>  <distance_score>  (530) 
2.8269084140935

>  <path>  (530) 
/opt/xchem-fragalysis-2/maxwin/BulkDock/SCRATCH/511020/C63297-P98/C63297-P98.minimised.mol

>  <scratch_subdir>  (530) 
/opt/xchem-fragalysis-2/maxwin/BulkDock/SCRATCH/511020/C63297-P98

>  <fragmenstein_runtime>  (530) 
2.291283369064331

>  <fragmenstein_outcome>  (530) 
too moved

>  <fragmenstein_mode>  (530) 
expansion

>  <fragmenstein_error>  (530) 


$$$$
C63298-P93
     RDKit          3D

 47 48  0  0  0  0  0  0  0  0999 V2000
   13.1778   -1.6812   13.1870 C   0  0  0  0  0  0  0  0  0  0  0  0
   12.4756   -0.4573   13.7585 C   0  0  0  0  0  0  0  0  0  0  0  0
   11.8160   -0.6528   15.0773 N   0  0  0  0  0  0  0  0  0  0  0  0
   10.3619   -0.7662   15.0753 C   0  0  0  0  0  0  0  0  0  0  0  0
   12.5410   -1.4997   15.9319 C   0  0  0  0  0  0  0  0  0  0  0  0
   12.2207   -2.8705   16.0210 C   0  0  0  0  0  0  0  0  0  0  0  0
   13.0027   -3.7559   16.7582 C   0  0  0  0  0  0  0  0  0  0  0  0
   14.1321   -3.2921   17.4135 C   0  0  0  0  0  0  0  0  0  0  0  0
   14.4671   -1.9411   17.3455 C   0  0  0  0  0  0  0  0  0  0  0  0
   13.6757   -1.0196   16.6308 C   0  0  0  0  0  0  0  0  0  0  0  0
   14.1400    0.4263   16.6792 C   0  0  0  0  0  0  0  0  0  0  0  0
   13.1815    1.3857   16.2167 N   0  0  0  0  0  0  0  0  0  0  0  0
   13.3075    2.9125   16.0132 C   0  0  0  0  0  0  0  0  0  0  0  0
   14.1851    3.6379   16.2629 O   0  0  0  0  0  0  0  0  0  0  0  0
   12.0383    3.3731   15.3002 C   0  0  0  0  0  0  0  0  0  0  0  0
   10.8102    3.4007   16.2029 C   0  0  0  0  0  0  0  0  0  0  0  0
   10.5467    4.7754   16.8218 C   0  0  0  0  0  0  0  0  0  0  0  0
   11.6384    5.2794   17.7603 C   0  0  0  0  0  0  0  0  0  0  0  0
   10.8891    6.1434   18.7733 C   0  0  0  0  0  0  0  0  0  0  0  0
    9.5313    5.4953   18.8086 C   0  0  0  0  0  0  0  0  0  0  0  0
    8.6878    5.5834   19.6878 O   0  0  0  0  0  0  0  0  0  0  0  0
    9.3795    4.7477   17.6609 N   0  0  0  0  0  0  0  0  0  0  0  0
   12.4836   -2.5192   13.0833 H   0  0  0  0  0  0  0  0  0  0  0  0
   14.0203   -1.9988   13.8087 H   0  0  0  0  0  0  0  0  0  0  0  0
   13.6035   -1.4510   12.2057 H   0  0  0  0  0  0  0  0  0  0  0  0
   13.2212    0.3411   13.8435 H   0  0  0  0  0  0  0  0  0  0  0  0
   11.7403   -0.0806   13.0399 H   0  0  0  0  0  0  0  0  0  0  0  0
    9.9221   -0.0801   14.3437 H   0  0  0  0  0  0  0  0  0  0  0  0
   10.0015   -1.7787   14.8907 H   0  0  0  0  0  0  0  0  0  0  0  0
    9.9709   -0.4389   16.0418 H   0  0  0  0  0  0  0  0  0  0  0  0
   11.3877   -3.2875   15.4609 H   0  0  0  0  0  0  0  0  0  0  0  0
   12.7393   -4.8094   16.7915 H   0  0  0  0  0  0  0  0  0  0  0  0
   14.7547   -3.9771   17.9818 H   0  0  0  0  0  0  0  0  0  0  0  0
   15.3544   -1.5988   17.8764 H   0  0  0  0  0  0  0  0  0  0  0  0
   14.3925    0.7105   17.7068 H   0  0  0  0  0  0  0  0  0  0  0  0
   15.0398    0.5427   16.0654 H   0  0  0  0  0  0  0  0  0  0  0  0
   12.3079    1.0592   15.8093 H   0  0  0  0  0  0  0  0  0  0  0  0
   11.8629    2.6902   14.4593 H   0  0  0  0  0  0  0  0  0  0  0  0
   12.2264    4.3555   14.8512 H   0  0  0  0  0  0  0  0  0  0  0  0
    9.9331    3.1282   15.6007 H   0  0  0  0  0  0  0  0  0  0  0  0
   10.8792    2.6431   16.9923 H   0  0  0  0  0  0  0  0  0  0  0  0
   10.3518    5.5143   16.0349 H   0  0  0  0  0  0  0  0  0  0  0  0
   12.1212    4.4458   18.2842 H   0  0  0  0  0  0  0  0  0  0  0  0
   12.4191    5.8392   17.2366 H   0  0  0  0  0  0  0  0  0  0  0  0
   11.3649    6.1173   19.7563 H   0  0  0  0  0  0  0  0  0  0  0  0
   10.7835    7.1756   18.4268 H   0  0  0  0  0  0  0  0  0  0  0  0
    8.5041    4.2809   17.4555 H   0  0  0  0  0  0  0  0  0  0  0  0
  1  2  1  0
  2  3  1  0
  3  4  1  0
  3  5  1  0
  5  6  2  0
  6  7  1  0
  7  8  2  0
  8  9  1  0
  9 10  2  0
 10 11  1  0
 11 12  1  0
 12 13  1  0
 13 14  2  0
 13 15  1  0
 15 16  1  0
 16 17  1  0
 17 18  1  0
 18 19  1  0
 19 20  1  0
 20 21  2  0
 20 22  1  0
 10  5  1  0
 22 17  1  0
  1 23  1  0
  1 24  1  0
  1 25  1  0
  2 26  1  0
  2 27  1  0
  4 28  1  0
  4 29  1  0
  4 30  1  0
  6 31  1  0
  7 32  1  0
  8 33  1  0
  9 34  1  0
 11 35  1  0
 11 36  1  0
 12 37  1  0
 15 38  1  0
 15 39  1  0
 16 40  1  0
 16 41  1  0
 17 42  1  0
 18 43  1  0
 18 44  1  0
 19 45  1  0
 19 46  1  0
 22 47  1  0
M  END
>  <Energy>  (531) 
-0.18526748322182307

>  <compound_id>  (531) 
63298

>  <target_id>  (531) 
1

>  <reference_id>  (531) 
93

>  <inspiration_ids>  (531) 
[93, 98]

>  <energy_score>  (531) 
-36.61001464340494

>  <distance_score>  (531) 
1.5815929463556078

>  <path>  (531) 
/opt/xchem-fragalysis-2/maxwin/BulkDock/SCRATCH/511020/C63298-P93/C63298-P93.minimised.mol

>  <scratch_subdir>  (531) 
/opt/xchem-fragalysis-2/maxwin/BulkDock/SCRATCH/511020/C63298-P93

>  <fragmenstein_runtime>  (531) 
3.1478183269500732

>  <fragmenstein_outcome>  (531) 
too moved

>  <fragmenstein_mode>  (531) 
expansion

>  <fragmenstein_error>  (531) 


$$$$
C63298-P98
     RDKit          3D

 47 48  0  0  0  0  0  0  0  0999 V2000
   11.7485   -2.8659   13.6508 C   0  0  0  0  0  0  0  0  0  0  0  0
   12.1987   -1.4192   13.6938 C   0  0  0  0  0  0  0  0  0  0  0  0
   12.0045   -0.8303   15.0335 N   0  0  0  0  0  0  0  0  0  0  0  0
   10.6130   -0.5853   15.3880 C   0  0  0  0  0  0  0  0  0  0  0  0
   12.8377   -1.4721   15.9659 C   0  0  0  0  0  0  0  0  0  0  0  0
   12.4921   -2.7072   16.5424 C   0  0  0  0  0  0  0  0  0  0  0  0
   13.3802   -3.4254   17.3386 C   0  0  0  0  0  0  0  0  0  0  0  0
   14.6364   -2.9035   17.5982 C   0  0  0  0  0  0  0  0  0  0  0  0
   14.9986   -1.6708   17.0579 C   0  0  0  0  0  0  0  0  0  0  0  0
   14.1182   -0.9501   16.2310 C   0  0  0  0  0  0  0  0  0  0  0  0
   14.5628    0.3919   15.7053 C   0  0  0  0  0  0  0  0  0  0  0  0
   14.1405    1.4469   16.5878 N   0  0  0  0  0  0  0  0  0  0  0  0
   14.9269    2.2277   17.6707 C   0  0  0  0  0  0  0  0  0  0  0  0
   16.0557    2.1887   17.9599 O   0  0  0  0  0  0  0  0  0  0  0  0
   13.9053    3.1402   18.3482 C   0  0  0  0  0  0  0  0  0  0  0  0
   14.4975    3.8796   19.5525 C   0  0  0  0  0  0  0  0  0  0  0  0
   13.4676    4.7646   20.2517 C   0  0  0  0  0  0  0  0  0  0  0  0
   14.0428    5.5553   21.4229 C   0  0  0  0  0  0  0  0  0  0  0  0
   12.8253    5.8267   22.3090 C   0  0  0  0  0  0  0  0  0  0  0  0
   11.9229    4.6593   22.0012 C   0  0  0  0  0  0  0  0  0  0  0  0
   10.9009    4.3356   22.5861 O   0  0  0  0  0  0  0  0  0  0  0  0
   12.4163    4.0173   20.8842 N   0  0  0  0  0  0  0  0  0  0  0  0
   10.7608   -3.0084   14.0869 H   0  0  0  0  0  0  0  0  0  0  0  0
   12.4208   -3.4869   14.2246 H   0  0  0  0  0  0  0  0  0  0  0  0
   11.7519   -3.2722   12.6525 H   0  0  0  0  0  0  0  0  0  0  0  0
   13.2523   -1.3530   13.3930 H   0  0  0  0  0  0  0  0  0  0  0  0
   11.6502   -0.8138   12.9679 H   0  0  0  0  0  0  0  0  0  0  0  0
   10.5582    0.0352   16.2855 H   0  0  0  0  0  0  0  0  0  0  0  0
   10.1171   -0.0145   14.5950 H   0  0  0  0  0  0  0  0  0  0  0  0
   10.0407   -1.5016   15.5507 H   0  0  0  0  0  0  0  0  0  0  0  0
   11.5322   -3.1663   16.3288 H   0  0  0  0  0  0  0  0  0  0  0  0
   13.0786   -4.3792   17.7616 H   0  0  0  0  0  0  0  0  0  0  0  0
   15.3330   -3.4437   18.2336 H   0  0  0  0  0  0  0  0  0  0  0  0
   15.9809   -1.2619   17.2911 H   0  0  0  0  0  0  0  0  0  0  0  0
   15.6549    0.4287   15.6247 H   0  0  0  0  0  0  0  0  0  0  0  0
   14.1586    0.5975   14.7101 H   0  0  0  0  0  0  0  0  0  0  0  0
   13.1559    1.6647   16.6620 H   0  0  0  0  0  0  0  0  0  0  0  0
   13.0606    2.5240   18.6721 H   0  0  0  0  0  0  0  0  0  0  0  0
   13.5463    3.8628   17.6064 H   0  0  0  0  0  0  0  0  0  0  0  0
   14.9064    3.1468   20.2604 H   0  0  0  0  0  0  0  0  0  0  0  0
   15.3398    4.4984   19.2183 H   0  0  0  0  0  0  0  0  0  0  0  0
   12.9968    5.4484   19.5344 H   0  0  0  0  0  0  0  0  0  0  0  0
   14.7691    4.9519   21.9825 H   0  0  0  0  0  0  0  0  0  0  0  0
   14.5439    6.4750   21.1066 H   0  0  0  0  0  0  0  0  0  0  0  0
   13.0920    5.8501   23.3680 H   0  0  0  0  0  0  0  0  0  0  0  0
   12.3192    6.7525   22.0200 H   0  0  0  0  0  0  0  0  0  0  0  0
   11.8293    3.3327   20.4271 H   0  0  0  0  0  0  0  0  0  0  0  0
  1  2  1  0
  2  3  1  0
  3  4  1  0
  3  5  1  0
  5  6  2  0
  6  7  1  0
  7  8  2  0
  8  9  1  0
  9 10  2  0
 10 11  1  0
 11 12  1  0
 12 13  1  0
 13 14  2  0
 13 15  1  0
 15 16  1  0
 16 17  1  0
 17 18  1  0
 18 19  1  0
 19 20  1  0
 20 21  2  0
 20 22  1  0
 10  5  1  0
 22 17  1  0
  1 23  1  0
  1 24  1  0
  1 25  1  0
  2 26  1  0
  2 27  1  0
  4 28  1  0
  4 29  1  0
  4 30  1  0
  6 31  1  0
  7 32  1  0
  8 33  1  0
  9 34  1  0
 11 35  1  0
 11 36  1  0
 12 37  1  0
 15 38  1  0
 15 39  1  0
 16 40  1  0
 16 41  1  0
 17 42  1  0
 18 43  1  0
 18 44  1  0
 19 45  1  0
 19 46  1  0
 22 47  1  0
M  END
>  <Energy>  (532) 
-2.4217996032770515

>  <compound_id>  (532) 
63298

>  <target_id>  (532) 
1

>  <reference_id>  (532) 
98

>  <inspiration_ids>  (532) 
[93, 98]

>  <energy_score>  (532) 
-38.846546763460225

>  <distance_score>  (532) 
1.5144225493571253

>  <path>  (532) 
/opt/xchem-fragalysis-2/maxwin/BulkDock/SCRATCH/511020/C63298-P98/C63298-P98.minimised.mol

>  <scratch_subdir>  (532) 
/opt/xchem-fragalysis-2/maxwin/BulkDock/SCRATCH/511020/C63298-P98

>  <fragmenstein_runtime>  (532) 
3.6979141235351562

>  <fragmenstein_outcome>  (532) 
too moved

>  <fragmenstein_mode>  (532) 
expansion

>  <fragmenstein_error>  (532) 


$$$$
C63299-P93
     RDKit          3D

 33 34  0  0  0  0  0  0  0  0999 V2000
   12.6434    2.0132   15.9351 C   0  0  0  0  0  0  0  0  0  0  0  0
   13.5065    0.7428   15.9086 C   0  0  0  0  0  0  0  0  0  0  0  0
   14.3465    0.8029   14.7035 N   0  0  0  0  0  0  0  0  0  0  0  0
   14.9522   -0.4472   14.2088 C   0  0  0  0  0  0  0  0  0  0  0  0
   16.0048   -1.2522   15.0200 C   0  0  0  0  0  0  0  0  0  0  0  0
   16.6684   -0.5744   16.2063 C   0  0  0  0  0  0  0  0  0  0  0  0
   17.2089   -1.7346   17.0428 C   0  0  0  0  0  0  0  0  0  0  0  0
   16.2956   -2.8754   16.6897 C   0  0  0  0  0  0  0  0  0  0  0  0
   16.2226   -3.9550   17.2499 O   0  0  0  0  0  0  0  0  0  0  0  0
   15.5654   -2.5030   15.5828 N   0  0  0  0  0  0  0  0  0  0  0  0
   12.7490   -0.5649   16.0369 C   0  0  0  0  0  0  0  0  0  0  0  0
   13.2207   -1.5385   16.9289 C   0  0  0  0  0  0  0  0  0  0  0  0
   12.7719   -2.8565   16.8654 C   0  0  0  0  0  0  0  0  0  0  0  0
   11.8044   -3.1506   15.9382 C   0  0  0  0  0  0  0  0  0  0  0  0
   11.2357   -2.2244   15.1435 N   0  0  0  0  0  0  0  0  0  0  0  0
   11.7240   -0.9634   15.1895 C   0  0  0  0  0  0  0  0  0  0  0  0
   11.9401    2.0465   15.0952 H   0  0  0  0  0  0  0  0  0  0  0  0
   13.2667    2.9137   15.8898 H   0  0  0  0  0  0  0  0  0  0  0  0
   12.0556    2.0679   16.8558 H   0  0  0  0  0  0  0  0  0  0  0  0
   14.1536    0.8440   16.7849 H   0  0  0  0  0  0  0  0  0  0  0  0
   13.7923    1.1893   13.9384 H   0  0  0  0  0  0  0  0  0  0  0  0
   15.4869   -0.1255   13.3036 H   0  0  0  0  0  0  0  0  0  0  0  0
   14.1815   -1.1266   13.8245 H   0  0  0  0  0  0  0  0  0  0  0  0
   16.7961   -1.5384   14.3119 H   0  0  0  0  0  0  0  0  0  0  0  0
   15.9733   -0.0131   16.8285 H   0  0  0  0  0  0  0  0  0  0  0  0
   17.4607    0.1164   15.9013 H   0  0  0  0  0  0  0  0  0  0  0  0
   18.2303   -1.9948   16.7492 H   0  0  0  0  0  0  0  0  0  0  0  0
   17.1663   -1.5160   18.1125 H   0  0  0  0  0  0  0  0  0  0  0  0
   15.0311   -3.2029   15.0852 H   0  0  0  0  0  0  0  0  0  0  0  0
   14.0137   -1.2993   17.6345 H   0  0  0  0  0  0  0  0  0  0  0  0
   13.1810   -3.6239   17.5142 H   0  0  0  0  0  0  0  0  0  0  0  0
   11.4174   -4.1579   15.8351 H   0  0  0  0  0  0  0  0  0  0  0  0
   11.2938   -0.2933   14.4499 H   0  0  0  0  0  0  0  0  0  0  0  0
  1  2  1  0
  2  3  1  0
  3  4  1  0
  4  5  1  0
  5  6  1  0
  6  7  1  0
  7  8  1  0
  8  9  2  0
  8 10  1  0
  2 11  1  0
 11 12  2  0
 12 13  1  0
 13 14  2  0
 14 15  1  0
 15 16  2  0
 10  5  1  0
 16 11  1  0
  1 17  1  0
  1 18  1  0
  1 19  1  0
  2 20  1  0
  3 21  1  0
  4 22  1  0
  4 23  1  0
  5 24  1  0
  6 25  1  0
  6 26  1  0
  7 27  1  0
  7 28  1  0
 10 29  1  0
 12 30  1  0
 13 31  1  0
 14 32  1  0
 16 33  1  0
M  END
>  <Energy>  (533) 
30.273336525876349

>  <compound_id>  (533) 
63299

>  <target_id>  (533) 
1

>  <reference_id>  (533) 
93

>  <inspiration_ids>  (533) 
[93, 98]

>  <energy_score>  (533) 
-11.051056597402146

>  <distance_score>  (533) 
2.0636900769816995

>  <path>  (533) 
/opt/xchem-fragalysis-2/maxwin/BulkDock/SCRATCH/511020/C63299-P93/C63299-P93.minimised.mol

>  <scratch_subdir>  (533) 
/opt/xchem-fragalysis-2/maxwin/BulkDock/SCRATCH/511020/C63299-P93

>  <fragmenstein_runtime>  (533) 
1.5455729961395264

>  <fragmenstein_outcome>  (533) 
too moved

>  <fragmenstein_mode>  (533) 
expansion

>  <fragmenstein_error>  (533) 


$$$$
C63299-P98
     RDKit          3D

 33 34  0  0  0  0  0  0  0  0999 V2000
   12.6379    2.1172   15.8222 C   0  0  0  0  0  0  0  0  0  0  0  0
   13.4448    0.8134   15.8629 C   0  0  0  0  0  0  0  0  0  0  0  0
   14.3919    0.8323   14.7299 N   0  0  0  0  0  0  0  0  0  0  0  0
   15.0831   -0.4461   14.4490 C   0  0  0  0  0  0  0  0  0  0  0  0
   15.8091   -1.0869   15.6473 C   0  0  0  0  0  0  0  0  0  0  0  0
   17.3082   -0.9103   15.7013 C   0  0  0  0  0  0  0  0  0  0  0  0
   17.7130   -1.9503   16.7526 C   0  0  0  0  0  0  0  0  0  0  0  0
   16.6750   -3.0300   16.5743 C   0  0  0  0  0  0  0  0  0  0  0  0
   16.6673   -4.1361   17.0820 O   0  0  0  0  0  0  0  0  0  0  0  0
   15.6909   -2.5202   15.7537 N   0  0  0  0  0  0  0  0  0  0  0  0
   12.6206   -0.4680   15.8984 C   0  0  0  0  0  0  0  0  0  0  0  0
   12.9933   -1.5158   16.7576 C   0  0  0  0  0  0  0  0  0  0  0  0
   12.5020   -2.8090   16.5958 C   0  0  0  0  0  0  0  0  0  0  0  0
   11.5682   -3.0012   15.6130 C   0  0  0  0  0  0  0  0  0  0  0  0
   11.0899   -2.0048   14.8491 N   0  0  0  0  0  0  0  0  0  0  0  0
   11.6320   -0.7744   14.9796 C   0  0  0  0  0  0  0  0  0  0  0  0
   12.0434    2.2019   14.9054 H   0  0  0  0  0  0  0  0  0  0  0  0
   13.2986    2.9899   15.8763 H   0  0  0  0  0  0  0  0  0  0  0  0
   11.9439    2.1725   16.6671 H   0  0  0  0  0  0  0  0  0  0  0  0
   14.0223    0.8733   16.7939 H   0  0  0  0  0  0  0  0  0  0  0  0
   13.8971    1.1069   13.8804 H   0  0  0  0  0  0  0  0  0  0  0  0
   15.8113   -0.2472   13.6534 H   0  0  0  0  0  0  0  0  0  0  0  0
   14.3717   -1.1560   14.0097 H   0  0  0  0  0  0  0  0  0  0  0  0
   15.4489   -0.6754   16.5918 H   0  0  0  0  0  0  0  0  0  0  0  0
   17.6141    0.1026   15.9788 H   0  0  0  0  0  0  0  0  0  0  0  0
   17.7730   -1.1591   14.7388 H   0  0  0  0  0  0  0  0  0  0  0  0
   18.7180   -2.3373   16.5696 H   0  0  0  0  0  0  0  0  0  0  0  0
   17.6371   -1.5462   17.7667 H   0  0  0  0  0  0  0  0  0  0  0  0
   14.8354   -3.0456   15.6331 H   0  0  0  0  0  0  0  0  0  0  0  0
   13.7362   -1.3543   17.5362 H   0  0  0  0  0  0  0  0  0  0  0  0
   12.8293   -3.6266   17.2299 H   0  0  0  0  0  0  0  0  0  0  0  0
   11.1295   -3.9739   15.4300 H   0  0  0  0  0  0  0  0  0  0  0  0
   11.2736   -0.0516   14.2520 H   0  0  0  0  0  0  0  0  0  0  0  0
  1  2  1  0
  2  3  1  0
  3  4  1  0
  4  5  1  0
  5  6  1  0
  6  7  1  0
  7  8  1  0
  8  9  2  0
  8 10  1  0
  2 11  1  0
 11 12  2  0
 12 13  1  0
 13 14  2  0
 14 15  1  0
 15 16  2  0
 10  5  1  0
 16 11  1  0
  1 17  1  0
  1 18  1  0
  1 19  1  0
  2 20  1  0
  3 21  1  0
  4 22  1  0
  4 23  1  0
  5 24  1  0
  6 25  1  0
  6 26  1  0
  7 27  1  0
  7 28  1  0
 10 29  1  0
 12 30  1  0
 13 31  1  0
 14 32  1  0
 16 33  1  0
M  END
>  <Energy>  (534) 
29.296641358254046

>  <compound_id>  (534) 
63299

>  <target_id>  (534) 
1

>  <reference_id>  (534) 
98

>  <inspiration_ids>  (534) 
[93, 98]

>  <energy_score>  (534) 
-12.027751765024203

>  <distance_score>  (534) 
2.098228502903544

>  <path>  (534) 
/opt/xchem-fragalysis-2/maxwin/BulkDock/SCRATCH/511020/C63299-P98/C63299-P98.minimised.mol

>  <scratch_subdir>  (534) 
/opt/xchem-fragalysis-2/maxwin/BulkDock/SCRATCH/511020/C63299-P98

>  <fragmenstein_runtime>  (534) 
1.689338207244873

>  <fragmenstein_outcome>  (534) 
too moved

>  <fragmenstein_mode>  (534) 
expansion

>  <fragmenstein_error>  (534) 


$$$$
C63303-P93
     RDKit          3D

 33 34  0  0  0  0  0  0  0  0999 V2000
   13.3524    2.8677   15.9632 C   0  0  0  0  0  0  0  0  0  0  0  0
   13.9241    1.4514   16.0944 C   0  0  0  0  0  0  0  0  0  0  0  0
   14.9254    1.2032   15.0481 N   0  0  0  0  0  0  0  0  0  0  0  0
   16.0803    0.3839   15.4588 C   0  0  0  0  0  0  0  0  0  0  0  0
   15.8756   -0.9554   16.2118 C   0  0  0  0  0  0  0  0  0  0  0  0
   15.3772   -2.1085   15.3524 C   0  0  0  0  0  0  0  0  0  0  0  0
   16.6316   -2.8970   15.0106 C   0  0  0  0  0  0  0  0  0  0  0  0
   17.5075   -2.6462   16.2008 C   0  0  0  0  0  0  0  0  0  0  0  0
   18.4667   -3.3053   16.5573 O   0  0  0  0  0  0  0  0  0  0  0  0
   17.0740   -1.4921   16.8026 N   0  0  0  0  0  0  0  0  0  0  0  0
   12.8789    0.3701   15.9443 C   0  0  0  0  0  0  0  0  0  0  0  0
   12.8761   -0.7365   16.7992 C   0  0  0  0  0  0  0  0  0  0  0  0
   12.3056   -1.9248   16.3987 C   0  0  0  0  0  0  0  0  0  0  0  0
   11.6611   -1.9156   15.1934 C   0  0  0  0  0  0  0  0  0  0  0  0
   11.1986   -3.3750   14.5119 Cl  0  0  0  0  0  0  0  0  0  0  0  0
   11.4661   -0.8347   14.4311 N   0  0  0  0  0  0  0  0  0  0  0  0
   12.1030    0.2829   14.7993 C   0  0  0  0  0  0  0  0  0  0  0  0
   12.9334    3.0608   14.9695 H   0  0  0  0  0  0  0  0  0  0  0  0
   14.1316    3.6167   16.1442 H   0  0  0  0  0  0  0  0  0  0  0  0
   12.5538    3.0304   16.6959 H   0  0  0  0  0  0  0  0  0  0  0  0
   14.3816    1.4036   17.0911 H   0  0  0  0  0  0  0  0  0  0  0  0
   15.2810    2.0875   14.6838 H   0  0  0  0  0  0  0  0  0  0  0  0
   16.6804    0.1903   14.5607 H   0  0  0  0  0  0  0  0  0  0  0  0
   16.7124    1.0220   16.0917 H   0  0  0  0  0  0  0  0  0  0  0  0
   15.2670   -0.7795   17.0881 H   0  0  0  0  0  0  0  0  0  0  0  0
   14.7436   -2.7722   15.9497 H   0  0  0  0  0  0  0  0  0  0  0  0
   14.8178   -1.8022   14.4644 H   0  0  0  0  0  0  0  0  0  0  0  0
   16.4230   -3.9634   14.9016 H   0  0  0  0  0  0  0  0  0  0  0  0
   17.1239   -2.5111   14.1131 H   0  0  0  0  0  0  0  0  0  0  0  0
   17.5278   -1.1534   17.6424 H   0  0  0  0  0  0  0  0  0  0  0  0
   13.4369   -0.7037   17.7269 H   0  0  0  0  0  0  0  0  0  0  0  0
   12.4289   -2.8357   16.9732 H   0  0  0  0  0  0  0  0  0  0  0  0
   12.0589    1.0860   14.0697 H   0  0  0  0  0  0  0  0  0  0  0  0
  1  2  1  0
  2  3  1  0
  3  4  1  0
  4  5  1  0
  5  6  1  0
  6  7  1  0
  7  8  1  0
  8  9  2  0
  8 10  1  0
  2 11  1  0
 11 12  2  0
 12 13  1  0
 13 14  2  0
 14 15  1  0
 14 16  1  0
 16 17  2  0
 10  5  1  0
 17 11  1  0
  1 18  1  0
  1 19  1  0
  1 20  1  0
  2 21  1  0
  3 22  1  0
  4 23  1  0
  4 24  1  0
  5 25  1  0
  6 26  1  0
  6 27  1  0
  7 28  1  0
  7 29  1  0
 10 30  1  0
 12 31  1  0
 13 32  1  0
 17 33  1  0
M  END
>  <Energy>  (535) 
29.920198600253268

>  <compound_id>  (535) 
63303

>  <target_id>  (535) 
1

>  <reference_id>  (535) 
93

>  <inspiration_ids>  (535) 
[93, 98]

>  <energy_score>  (535) 
-13.8573888371035

>  <distance_score>  (535) 
2.260734957955005

>  <path>  (535) 
/opt/xchem-fragalysis-2/maxwin/BulkDock/SCRATCH/511020/C63303-P93/C63303-P93.minimised.mol

>  <scratch_subdir>  (535) 
/opt/xchem-fragalysis-2/maxwin/BulkDock/SCRATCH/511020/C63303-P93

>  <fragmenstein_runtime>  (535) 
2.2733314037323

>  <fragmenstein_outcome>  (535) 
too moved

>  <fragmenstein_mode>  (535) 
expansion

>  <fragmenstein_error>  (535) 


$$$$
C63303-P98
     RDKit          3D

 33 34  0  0  0  0  0  0  0  0999 V2000
   13.2991    2.7996   16.1464 C   0  0  0  0  0  0  0  0  0  0  0  0
   13.9265    1.4000   16.1189 C   0  0  0  0  0  0  0  0  0  0  0  0
   14.8061    1.2655   14.9468 N   0  0  0  0  0  0  0  0  0  0  0  0
   16.0557    0.5224   15.1885 C   0  0  0  0  0  0  0  0  0  0  0  0
   15.9956   -0.8645   15.8526 C   0  0  0  0  0  0  0  0  0  0  0  0
   15.5707   -2.0155   14.9627 C   0  0  0  0  0  0  0  0  0  0  0  0
   15.9514   -3.2324   15.8056 C   0  0  0  0  0  0  0  0  0  0  0  0
   17.1383   -2.7337   16.5885 C   0  0  0  0  0  0  0  0  0  0  0  0
   17.8754   -3.3876   17.3036 O   0  0  0  0  0  0  0  0  0  0  0  0
   17.2302   -1.3651   16.3974 N   0  0  0  0  0  0  0  0  0  0  0  0
   12.9075    0.2849   16.0255 C   0  0  0  0  0  0  0  0  0  0  0  0
   13.0340   -0.8806   16.7972 C   0  0  0  0  0  0  0  0  0  0  0  0
   12.4403   -2.0552   16.3846 C   0  0  0  0  0  0  0  0  0  0  0  0
   11.6483   -1.9737   15.2711 C   0  0  0  0  0  0  0  0  0  0  0  0
   11.1668   -3.3782   14.4961 Cl  0  0  0  0  0  0  0  0  0  0  0  0
   11.3161   -0.8443   14.6345 N   0  0  0  0  0  0  0  0  0  0  0  0
   11.9838    0.2581   14.9914 C   0  0  0  0  0  0  0  0  0  0  0  0
   12.7641    3.0390   15.2208 H   0  0  0  0  0  0  0  0  0  0  0  0
   14.0701    3.5653   16.2892 H   0  0  0  0  0  0  0  0  0  0  0  0
   12.5843    2.8852   16.9728 H   0  0  0  0  0  0  0  0  0  0  0  0
   14.4978    1.3109   17.0520 H   0  0  0  0  0  0  0  0  0  0  0  0
   15.0530    2.1856   14.5821 H   0  0  0  0  0  0  0  0  0  0  0  0
   16.5810    0.4319   14.2297 H   0  0  0  0  0  0  0  0  0  0  0  0
   16.6972    1.1645   15.8074 H   0  0  0  0  0  0  0  0  0  0  0  0
   15.4029   -0.7927   16.7537 H   0  0  0  0  0  0  0  0  0  0  0  0
   14.5254   -2.0062   14.6605 H   0  0  0  0  0  0  0  0  0  0  0  0
   16.1670   -2.0211   14.0400 H   0  0  0  0  0  0  0  0  0  0  0  0
   15.1571   -3.5119   16.5028 H   0  0  0  0  0  0  0  0  0  0  0  0
   16.2334   -4.0850   15.1845 H   0  0  0  0  0  0  0  0  0  0  0  0
   17.8232   -0.8583   17.0439 H   0  0  0  0  0  0  0  0  0  0  0  0
   13.6904   -0.9029   17.6627 H   0  0  0  0  0  0  0  0  0  0  0  0
   12.6407   -3.0006   16.8771 H   0  0  0  0  0  0  0  0  0  0  0  0
   11.8247    1.1095   14.3366 H   0  0  0  0  0  0  0  0  0  0  0  0
  1  2  1  0
  2  3  1  0
  3  4  1  0
  4  5  1  0
  5  6  1  0
  6  7  1  0
  7  8  1  0
  8  9  2  0
  8 10  1  0
  2 11  1  0
 11 12  2  0
 12 13  1  0
 13 14  2  0
 14 15  1  0
 14 16  1  0
 16 17  2  0
 10  5  1  0
 17 11  1  0
  1 18  1  0
  1 19  1  0
  1 20  1  0
  2 21  1  0
  3 22  1  0
  4 23  1  0
  4 24  1  0
  5 25  1  0
  6 26  1  0
  6 27  1  0
  7 28  1  0
  7 29  1  0
 10 30  1  0
 12 31  1  0
 13 32  1  0
 17 33  1  0
M  END
>  <Energy>  (536) 
29.614800709673162

>  <compound_id>  (536) 
63303

>  <target_id>  (536) 
1

>  <reference_id>  (536) 
98

>  <inspiration_ids>  (536) 
[93, 98]

>  <energy_score>  (536) 
-14.162786727684505

>  <distance_score>  (536) 
2.306629679547876

>  <path>  (536) 
/opt/xchem-fragalysis-2/maxwin/BulkDock/SCRATCH/511020/C63303-P98/C63303-P98.minimised.mol

>  <scratch_subdir>  (536) 
/opt/xchem-fragalysis-2/maxwin/BulkDock/SCRATCH/511020/C63303-P98

>  <fragmenstein_runtime>  (536) 
1.8135998249053955

>  <fragmenstein_outcome>  (536) 
too moved

>  <fragmenstein_mode>  (536) 
expansion

>  <fragmenstein_error>  (536) 


$$$$
C63305-P93
     RDKit          3D

 36 37  0  0  0  0  0  0  0  0999 V2000
   11.6747   -1.6697   15.0942 C   0  0  0  0  0  0  0  0  0  0  0  0
   12.6137   -1.7224   16.2673 C   0  0  0  0  0  0  0  0  0  0  0  0
   12.7479   -2.9755   16.9058 C   0  0  0  0  0  0  0  0  0  0  0  0
   13.6460   -3.1136   17.9524 C   0  0  0  0  0  0  0  0  0  0  0  0
   14.3855   -2.0927   18.4320 N   0  0  0  0  0  0  0  0  0  0  0  0
   14.2514   -0.8972   17.8147 C   0  0  0  0  0  0  0  0  0  0  0  0
   13.4473   -0.6522   16.6882 C   0  0  0  0  0  0  0  0  0  0  0  0
   13.7447    0.6474   15.9278 C   0  0  0  0  0  0  0  0  0  0  0  0
   12.7066    1.7550   16.1092 C   0  0  0  0  0  0  0  0  0  0  0  0
   13.9862    0.4193   14.4986 N   0  0  0  0  0  0  0  0  0  0  0  0
   15.2880   -0.1774   14.1446 C   0  0  0  0  0  0  0  0  0  0  0  0
   15.9800   -1.1644   15.1092 C   0  0  0  0  0  0  0  0  0  0  0  0
   17.4329   -1.4624   14.8117 C   0  0  0  0  0  0  0  0  0  0  0  0
   17.7056   -2.6513   15.7408 C   0  0  0  0  0  0  0  0  0  0  0  0
   16.3786   -3.3625   15.7521 C   0  0  0  0  0  0  0  0  0  0  0  0
   16.1479   -4.4764   16.1892 O   0  0  0  0  0  0  0  0  0  0  0  0
   15.4605   -2.5029   15.1747 N   0  0  0  0  0  0  0  0  0  0  0  0
   12.1841   -1.9937   14.1815 H   0  0  0  0  0  0  0  0  0  0  0  0
   10.8166   -2.3306   15.2577 H   0  0  0  0  0  0  0  0  0  0  0  0
   11.2657   -0.6662   14.9539 H   0  0  0  0  0  0  0  0  0  0  0  0
   12.1814   -3.8446   16.5799 H   0  0  0  0  0  0  0  0  0  0  0  0
   13.7808   -4.0660   18.4557 H   0  0  0  0  0  0  0  0  0  0  0  0
   14.8993   -0.1250   18.2255 H   0  0  0  0  0  0  0  0  0  0  0  0
   14.6684    1.0844   16.3325 H   0  0  0  0  0  0  0  0  0  0  0  0
   12.9863    2.6535   15.5474 H   0  0  0  0  0  0  0  0  0  0  0  0
   11.7119    1.4438   15.7748 H   0  0  0  0  0  0  0  0  0  0  0  0
   12.6295    2.0409   17.1635 H   0  0  0  0  0  0  0  0  0  0  0  0
   13.2326   -0.1117   14.0753 H   0  0  0  0  0  0  0  0  0  0  0  0
   15.1840   -0.6478   13.1590 H   0  0  0  0  0  0  0  0  0  0  0  0
   15.9723    0.6679   13.9976 H   0  0  0  0  0  0  0  0  0  0  0  0
   16.0033   -0.7365   16.1120 H   0  0  0  0  0  0  0  0  0  0  0  0
   17.5707   -1.7623   13.7649 H   0  0  0  0  0  0  0  0  0  0  0  0
   18.0973   -0.6178   15.0174 H   0  0  0  0  0  0  0  0  0  0  0  0
   18.4943   -3.2959   15.3463 H   0  0  0  0  0  0  0  0  0  0  0  0
   17.9477   -2.3252   16.7568 H   0  0  0  0  0  0  0  0  0  0  0  0
   14.4869   -2.7433   15.2487 H   0  0  0  0  0  0  0  0  0  0  0  0
  1  2  1  0
  2  3  2  0
  3  4  1  0
  4  5  2  0
  5  6  1  0
  6  7  2  0
  7  8  1  0
  8  9  1  0
  8 10  1  0
 10 11  1  0
 11 12  1  0
 12 13  1  0
 13 14  1  0
 14 15  1  0
 15 16  2  0
 15 17  1  0
  7  2  1  0
 17 12  1  0
  1 18  1  0
  1 19  1  0
  1 20  1  0
  3 21  1  0
  4 22  1  0
  6 23  1  0
  8 24  1  0
  9 25  1  0
  9 26  1  0
  9 27  1  0
 10 28  1  0
 11 29  1  0
 11 30  1  0
 12 31  1  0
 13 32  1  0
 13 33  1  0
 14 34  1  0
 14 35  1  0
 17 36  1  0
M  END
>  <Energy>  (537) 
35.552253387606349

>  <compound_id>  (537) 
63305

>  <target_id>  (537) 
1

>  <reference_id>  (537) 
93

>  <inspiration_ids>  (537) 
[93, 98]

>  <energy_score>  (537) 
-12.293221624797155

>  <distance_score>  (537) 
2.0784490061551644

>  <path>  (537) 
/opt/xchem-fragalysis-2/maxwin/BulkDock/SCRATCH/511020/C63305-P93/C63305-P93.minimised.mol

>  <scratch_subdir>  (537) 
/opt/xchem-fragalysis-2/maxwin/BulkDock/SCRATCH/511020/C63305-P93

>  <fragmenstein_runtime>  (537) 
1.1743288040161133

>  <fragmenstein_outcome>  (537) 
too moved

>  <fragmenstein_mode>  (537) 
expansion

>  <fragmenstein_error>  (537) 


$$$$
C63305-P98
     RDKit          3D

 36 37  0  0  0  0  0  0  0  0999 V2000
   11.7309   -1.5896   15.0032 C   0  0  0  0  0  0  0  0  0  0  0  0
   12.6834   -1.7381   16.1553 C   0  0  0  0  0  0  0  0  0  0  0  0
   12.7454   -3.0108   16.7610 C   0  0  0  0  0  0  0  0  0  0  0  0
   13.5889   -3.2097   17.8430 C   0  0  0  0  0  0  0  0  0  0  0  0
   14.3570   -2.2353   18.3704 N   0  0  0  0  0  0  0  0  0  0  0  0
   14.3229   -1.0330   17.7536 C   0  0  0  0  0  0  0  0  0  0  0  0
   13.5514   -0.7202   16.6223 C   0  0  0  0  0  0  0  0  0  0  0  0
   13.8691    0.6124   15.9573 C   0  0  0  0  0  0  0  0  0  0  0  0
   12.8858    1.7493   16.2646 C   0  0  0  0  0  0  0  0  0  0  0  0
   14.0923    0.5549   14.5186 N   0  0  0  0  0  0  0  0  0  0  0  0
   14.8512   -0.5514   13.9244 C   0  0  0  0  0  0  0  0  0  0  0  0
   16.0018   -1.3604   14.5845 C   0  0  0  0  0  0  0  0  0  0  0  0
   16.9941   -0.6291   15.4675 C   0  0  0  0  0  0  0  0  0  0  0  0
   17.6432   -1.7373   16.3017 C   0  0  0  0  0  0  0  0  0  0  0  0
   16.6536   -2.8673   16.2463 C   0  0  0  0  0  0  0  0  0  0  0  0
   16.7516   -3.9489   16.7991 O   0  0  0  0  0  0  0  0  0  0  0  0
   15.6459   -2.5019   15.3795 N   0  0  0  0  0  0  0  0  0  0  0  0
   12.1355   -2.0563   14.1012 H   0  0  0  0  0  0  0  0  0  0  0  0
   10.7769   -2.0743   15.2401 H   0  0  0  0  0  0  0  0  0  0  0  0
   11.4981   -0.5429   14.7961 H   0  0  0  0  0  0  0  0  0  0  0  0
   12.1344   -3.8371   16.4082 H   0  0  0  0  0  0  0  0  0  0  0  0
   13.6477   -4.1714   18.3437 H   0  0  0  0  0  0  0  0  0  0  0  0
   15.0041   -0.3073   18.1926 H   0  0  0  0  0  0  0  0  0  0  0  0
   14.8054    0.9858   16.3810 H   0  0  0  0  0  0  0  0  0  0  0  0
   13.1761    2.6746   15.7534 H   0  0  0  0  0  0  0  0  0  0  0  0
   11.8648    1.4987   15.9586 H   0  0  0  0  0  0  0  0  0  0  0  0
   12.8742    1.9670   17.3376 H   0  0  0  0  0  0  0  0  0  0  0  0
   13.2148    0.6663   14.0138 H   0  0  0  0  0  0  0  0  0  0  0  0
   14.1345   -1.2822   13.5332 H   0  0  0  0  0  0  0  0  0  0  0  0
   15.2944   -0.1036   13.0244 H   0  0  0  0  0  0  0  0  0  0  0  0
   16.5715   -1.7932   13.7480 H   0  0  0  0  0  0  0  0  0  0  0  0
   17.7358   -0.0771   14.8807 H   0  0  0  0  0  0  0  0  0  0  0  0
   16.5407    0.0871   16.1480 H   0  0  0  0  0  0  0  0  0  0  0  0
   18.5821   -2.0686   15.8476 H   0  0  0  0  0  0  0  0  0  0  0  0
   17.8150   -1.4212   17.3335 H   0  0  0  0  0  0  0  0  0  0  0  0
   14.9945   -3.2198   15.1055 H   0  0  0  0  0  0  0  0  0  0  0  0
  1  2  1  0
  2  3  2  0
  3  4  1  0
  4  5  2  0
  5  6  1  0
  6  7  2  0
  7  8  1  0
  8  9  1  0
  8 10  1  0
 10 11  1  0
 11 12  1  0
 12 13  1  0
 13 14  1  0
 14 15  1  0
 15 16  2  0
 15 17  1  0
  7  2  1  0
 17 12  1  0
  1 18  1  0
  1 19  1  0
  1 20  1  0
  3 21  1  0
  4 22  1  0
  6 23  1  0
  8 24  1  0
  9 25  1  0
  9 26  1  0
  9 27  1  0
 10 28  1  0
 11 29  1  0
 11 30  1  0
 12 31  1  0
 13 32  1  0
 13 33  1  0
 14 34  1  0
 14 35  1  0
 17 36  1  0
M  END
>  <Energy>  (538) 
40.422491299711012

>  <compound_id>  (538) 
63305

>  <target_id>  (538) 
1

>  <reference_id>  (538) 
98

>  <inspiration_ids>  (538) 
[93, 98]

>  <energy_score>  (538) 
-7.4229837126924

>  <distance_score>  (538) 
2.030455220911209

>  <path>  (538) 
/opt/xchem-fragalysis-2/maxwin/BulkDock/SCRATCH/511020/C63305-P98/C63305-P98.minimised.mol

>  <scratch_subdir>  (538) 
/opt/xchem-fragalysis-2/maxwin/BulkDock/SCRATCH/511020/C63305-P98

>  <fragmenstein_runtime>  (538) 
1.2079598903656006

>  <fragmenstein_outcome>  (538) 
too moved

>  <fragmenstein_mode>  (538) 
expansion

>  <fragmenstein_error>  (538) 


$$$$
C63310-P93
     RDKit          3D

 42 44  0  0  0  0  0  0  0  0999 V2000
   13.6181    3.0329   16.3537 C   0  0  0  0  0  0  0  0  0  0  0  0
   14.0241    1.8279   15.4943 C   0  0  0  0  0  0  0  0  0  0  0  0
   12.8208    1.3288   14.8054 N   0  0  0  0  0  0  0  0  0  0  0  0
   13.0102    0.1218   13.9883 C   0  0  0  0  0  0  0  0  0  0  0  0
   13.4427   -1.0800   14.7805 C   0  0  0  0  0  0  0  0  0  0  0  0
   12.5537   -1.7991   15.5844 C   0  0  0  0  0  0  0  0  0  0  0  0
   13.0326   -2.7920   16.4489 C   0  0  0  0  0  0  0  0  0  0  0  0
   14.4004   -3.0726   16.5241 C   0  0  0  0  0  0  0  0  0  0  0  0
   14.9713   -3.9053   17.5123 N   0  0  0  0  0  0  0  0  0  0  0  0
   16.3883   -4.1982   17.5600 C   0  0  0  0  0  0  0  0  0  0  0  0
   16.6025   -4.8654   18.9058 C   0  0  0  0  0  0  0  0  0  0  0  0
   15.2805   -5.1021   19.3980 N   0  0  0  0  0  0  0  0  0  0  0  0
   14.3438   -4.4013   18.6519 C   0  0  0  0  0  0  0  0  0  0  0  0
   13.1903   -4.2975   19.0165 O   0  0  0  0  0  0  0  0  0  0  0  0
   15.2497   -2.4445   15.6114 C   0  0  0  0  0  0  0  0  0  0  0  0
   14.7835   -1.4530   14.7612 C   0  0  0  0  0  0  0  0  0  0  0  0
   15.1365    2.2443   14.5560 C   0  0  0  0  0  0  0  0  0  0  0  0
   14.9132    3.0300   13.4195 C   0  0  0  0  0  0  0  0  0  0  0  0
   15.9809    3.3893   12.6026 C   0  0  0  0  0  0  0  0  0  0  0  0
   17.2483    2.9550   12.9519 C   0  0  0  0  0  0  0  0  0  0  0  0
   17.5112    2.2045   14.0427 N   0  0  0  0  0  0  0  0  0  0  0  0
   16.4535    1.8741   14.8189 C   0  0  0  0  0  0  0  0  0  0  0  0
   12.8600    2.7483   17.0927 H   0  0  0  0  0  0  0  0  0  0  0  0
   13.2063    3.8496   15.7490 H   0  0  0  0  0  0  0  0  0  0  0  0
   14.4795    3.4304   16.9030 H   0  0  0  0  0  0  0  0  0  0  0  0
   14.3907    1.0580   16.1841 H   0  0  0  0  0  0  0  0  0  0  0  0
   12.1099    1.1220   15.5035 H   0  0  0  0  0  0  0  0  0  0  0  0
   12.0526   -0.1111   13.5055 H   0  0  0  0  0  0  0  0  0  0  0  0
   13.6995    0.3135   13.1575 H   0  0  0  0  0  0  0  0  0  0  0  0
   11.4912   -1.5713   15.5641 H   0  0  0  0  0  0  0  0  0  0  0  0
   12.3265   -3.3191   17.0810 H   0  0  0  0  0  0  0  0  0  0  0  0
   16.6469   -4.8685   16.7333 H   0  0  0  0  0  0  0  0  0  0  0  0
   16.9934   -3.2874   17.5056 H   0  0  0  0  0  0  0  0  0  0  0  0
   17.1509   -5.8084   18.8367 H   0  0  0  0  0  0  0  0  0  0  0  0
   17.1147   -4.2003   19.6082 H   0  0  0  0  0  0  0  0  0  0  0  0
   15.0474   -5.3132   20.3608 H   0  0  0  0  0  0  0  0  0  0  0  0
   16.3102   -2.6669   15.5563 H   0  0  0  0  0  0  0  0  0  0  0  0
   15.4874   -0.9489   14.1013 H   0  0  0  0  0  0  0  0  0  0  0  0
   13.9060    3.3547   13.1693 H   0  0  0  0  0  0  0  0  0  0  0  0
   15.8270    3.9929   11.7157 H   0  0  0  0  0  0  0  0  0  0  0  0
   18.1129    3.2089   12.3456 H   0  0  0  0  0  0  0  0  0  0  0  0
   16.7064    1.2761   15.6909 H   0  0  0  0  0  0  0  0  0  0  0  0
  1  2  1  0
  2  3  1  0
  3  4  1  0
  4  5  1  0
  5  6  2  0
  6  7  1  0
  7  8  2  0
  8  9  1  0
  9 10  1  0
 10 11  1  0
 11 12  1  0
 12 13  1  0
 13 14  2  0
  8 15  1  0
 15 16  2  0
  2 17  1  0
 17 18  2  0
 18 19  1  0
 19 20  2  0
 20 21  1  0
 21 22  2  0
 16  5  1  0
 22 17  1  0
 13  9  1  0
  1 23  1  0
  1 24  1  0
  1 25  1  0
  2 26  1  0
  3 27  1  0
  4 28  1  0
  4 29  1  0
  6 30  1  0
  7 31  1  0
 10 32  1  0
 10 33  1  0
 11 34  1  0
 11 35  1  0
 12 36  1  0
 15 37  1  0
 16 38  1  0
 18 39  1  0
 19 40  1  0
 20 41  1  0
 22 42  1  0
M  END
>  <Energy>  (539) 
-4.3581457067622633

>  <compound_id>  (539) 
63310

>  <target_id>  (539) 
1

>  <reference_id>  (539) 
93

>  <inspiration_ids>  (539) 
[93, 98]

>  <energy_score>  (539) 
-47.281017035974905

>  <distance_score>  (539) 
1.718821223460392

>  <path>  (539) 
/opt/xchem-fragalysis-2/maxwin/BulkDock/SCRATCH/511020/C63310-P93/C63310-P93.minimised.mol

>  <scratch_subdir>  (539) 
/opt/xchem-fragalysis-2/maxwin/BulkDock/SCRATCH/511020/C63310-P93

>  <fragmenstein_runtime>  (539) 
2.3956522941589355

>  <fragmenstein_outcome>  (539) 
too moved

>  <fragmenstein_mode>  (539) 
expansion

>  <fragmenstein_error>  (539) 


$$$$
C63310-P98
     RDKit          3D

 42 44  0  0  0  0  0  0  0  0999 V2000
   13.6362    3.0443   16.3986 C   0  0  0  0  0  0  0  0  0  0  0  0
   14.0233    1.8483   15.5183 C   0  0  0  0  0  0  0  0  0  0  0  0
   12.7966    1.3181   14.9007 N   0  0  0  0  0  0  0  0  0  0  0  0
   12.9678    0.1144   14.0773 C   0  0  0  0  0  0  0  0  0  0  0  0
   13.4279   -1.0880   14.8537 C   0  0  0  0  0  0  0  0  0  0  0  0
   12.5550   -1.8561   15.6312 C   0  0  0  0  0  0  0  0  0  0  0  0
   13.0485   -2.8945   16.4356 C   0  0  0  0  0  0  0  0  0  0  0  0
   14.4170   -3.1795   16.4718 C   0  0  0  0  0  0  0  0  0  0  0  0
   14.9943   -4.1345   17.3374 N   0  0  0  0  0  0  0  0  0  0  0  0
   16.3879   -4.5182   17.2554 C   0  0  0  0  0  0  0  0  0  0  0  0
   16.6353   -5.3290   18.5116 C   0  0  0  0  0  0  0  0  0  0  0  0
   15.3239   -5.6240   18.9968 N   0  0  0  0  0  0  0  0  0  0  0  0
   14.3863   -4.7833   18.4099 C   0  0  0  0  0  0  0  0  0  0  0  0
   13.2550   -4.6890   18.8416 O   0  0  0  0  0  0  0  0  0  0  0  0
   15.2578   -2.4608   15.6181 C   0  0  0  0  0  0  0  0  0  0  0  0
   14.7768   -1.4271   14.8284 C   0  0  0  0  0  0  0  0  0  0  0  0
   15.0682    2.2946   14.5181 C   0  0  0  0  0  0  0  0  0  0  0  0
   14.7564    3.0620   13.3899 C   0  0  0  0  0  0  0  0  0  0  0  0
   15.7653    3.4523   12.5144 C   0  0  0  0  0  0  0  0  0  0  0  0
   17.0645    3.0675   12.7986 C   0  0  0  0  0  0  0  0  0  0  0  0
   17.4121    2.3371   13.8793 N   0  0  0  0  0  0  0  0  0  0  0  0
   16.4100    1.9748   14.7127 C   0  0  0  0  0  0  0  0  0  0  0  0
   12.9286    2.7421   17.1794 H   0  0  0  0  0  0  0  0  0  0  0  0
   13.1702    3.8492   15.8178 H   0  0  0  0  0  0  0  0  0  0  0  0
   14.5168    3.4646   16.8982 H   0  0  0  0  0  0  0  0  0  0  0  0
   14.4493    1.0893   16.1854 H   0  0  0  0  0  0  0  0  0  0  0  0
   12.1257    1.1008   15.6338 H   0  0  0  0  0  0  0  0  0  0  0  0
   11.9978   -0.1220   13.6211 H   0  0  0  0  0  0  0  0  0  0  0  0
   13.6312    0.3073   13.2259 H   0  0  0  0  0  0  0  0  0  0  0  0
   11.4887   -1.6462   15.6236 H   0  0  0  0  0  0  0  0  0  0  0  0
   12.3502   -3.4708   17.0344 H   0  0  0  0  0  0  0  0  0  0  0  0
   16.5345   -5.1240   16.3543 H   0  0  0  0  0  0  0  0  0  0  0  0
   17.0591   -3.6543   17.2432 H   0  0  0  0  0  0  0  0  0  0  0  0
   17.1904   -6.2526   18.3297 H   0  0  0  0  0  0  0  0  0  0  0  0
   17.1528   -4.7385   19.2748 H   0  0  0  0  0  0  0  0  0  0  0  0
   15.1180   -5.9660   19.9272 H   0  0  0  0  0  0  0  0  0  0  0  0
   16.3215   -2.6608   15.5460 H   0  0  0  0  0  0  0  0  0  0  0  0
   15.4723   -0.8786   14.1960 H   0  0  0  0  0  0  0  0  0  0  0  0
   13.7262    3.3486   13.1915 H   0  0  0  0  0  0  0  0  0  0  0  0
   15.5424    4.0420   11.6327 H   0  0  0  0  0  0  0  0  0  0  0  0
   17.8858    3.3470   12.1451 H   0  0  0  0  0  0  0  0  0  0  0  0
   16.7314    1.3942   15.5739 H   0  0  0  0  0  0  0  0  0  0  0  0
  1  2  1  0
  2  3  1  0
  3  4  1  0
  4  5  1  0
  5  6  2  0
  6  7  1  0
  7  8  2  0
  8  9  1  0
  9 10  1  0
 10 11  1  0
 11 12  1  0
 12 13  1  0
 13 14  2  0
  8 15  1  0
 15 16  2  0
  2 17  1  0
 17 18  2  0
 18 19  1  0
 19 20  2  0
 20 21  1  0
 21 22  2  0
 16  5  1  0
 22 17  1  0
 13  9  1  0
  1 23  1  0
  1 24  1  0
  1 25  1  0
  2 26  1  0
  3 27  1  0
  4 28  1  0
  4 29  1  0
  6 30  1  0
  7 31  1  0
 10 32  1  0
 10 33  1  0
 11 34  1  0
 11 35  1  0
 12 36  1  0
 15 37  1  0
 16 38  1  0
 18 39  1  0
 19 40  1  0
 20 41  1  0
 22 42  1  0
M  END
>  <Energy>  (540) 
-5.3065520173505298

>  <compound_id>  (540) 
63310

>  <target_id>  (540) 
1

>  <reference_id>  (540) 
98

>  <inspiration_ids>  (540) 
[93, 98]

>  <energy_score>  (540) 
-48.22942334656235

>  <distance_score>  (540) 
1.7139631561412625

>  <path>  (540) 
/opt/xchem-fragalysis-2/maxwin/BulkDock/SCRATCH/511020/C63310-P98/C63310-P98.minimised.mol

>  <scratch_subdir>  (540) 
/opt/xchem-fragalysis-2/maxwin/BulkDock/SCRATCH/511020/C63310-P98

>  <fragmenstein_runtime>  (540) 
2.2775025367736816

>  <fragmenstein_outcome>  (540) 
too moved

>  <fragmenstein_mode>  (540) 
expansion

>  <fragmenstein_error>  (540) 


$$$$
C63312-P93
     RDKit          3D

 35 36  0  0  0  0  0  0  0  0999 V2000
   13.1076    2.2368   16.0387 C   0  0  0  0  0  0  0  0  0  0  0  0
   13.2637    0.7062   15.9555 C   0  0  0  0  0  0  0  0  0  0  0  0
   14.3487    0.4751   15.0137 N   0  0  0  0  0  0  0  0  0  0  0  0
   15.5643   -0.0887   15.5853 C   0  0  0  0  0  0  0  0  0  0  0  0
   15.5556   -1.6238   15.8017 C   0  0  0  0  0  0  0  0  0  0  0  0
   16.9691   -2.1636   15.9696 C   0  0  0  0  0  0  0  0  0  0  0  0
   17.2391   -2.0527   17.4656 C   0  0  0  0  0  0  0  0  0  0  0  0
   15.8724   -2.2571   18.0472 C   0  0  0  0  0  0  0  0  0  0  0  0
   15.5969   -2.5286   19.2005 O   0  0  0  0  0  0  0  0  0  0  0  0
   14.9551   -2.0447   17.0456 N   0  0  0  0  0  0  0  0  0  0  0  0
   11.9197    0.0193   15.5272 C   0  0  0  0  0  0  0  0  0  0  0  0
   11.7111   -1.4357   15.9963 C   0  0  0  0  0  0  0  0  0  0  0  0
   12.2067   -2.4776   15.0202 C   0  0  0  0  0  0  0  0  0  0  0  0
   12.5643   -1.5632   13.5300 S   0  0  0  0  0  0  0  0  0  0  0  0
   11.6765   -0.0549   14.0291 C   0  0  0  0  0  0  0  0  0  0  0  0
   14.0395    2.7112   16.3669 H   0  0  0  0  0  0  0  0  0  0  0  0
   12.8256    2.6679   15.0716 H   0  0  0  0  0  0  0  0  0  0  0  0
   12.3312    2.5032   16.7640 H   0  0  0  0  0  0  0  0  0  0  0  0
   13.5144    0.3563   16.9643 H   0  0  0  0  0  0  0  0  0  0  0  0
   14.0549   -0.1303   14.2415 H   0  0  0  0  0  0  0  0  0  0  0  0
   16.3579    0.1428   14.8641 H   0  0  0  0  0  0  0  0  0  0  0  0
   15.8370    0.4411   16.5067 H   0  0  0  0  0  0  0  0  0  0  0  0
   15.0828   -2.1355   14.9622 H   0  0  0  0  0  0  0  0  0  0  0  0
   17.7222   -1.6474   15.3668 H   0  0  0  0  0  0  0  0  0  0  0  0
   16.9928   -3.2237   15.6819 H   0  0  0  0  0  0  0  0  0  0  0  0
   17.9323   -2.8245   17.8082 H   0  0  0  0  0  0  0  0  0  0  0  0
   17.6053   -1.0599   17.7429 H   0  0  0  0  0  0  0  0  0  0  0  0
   13.9744   -2.1071   17.2555 H   0  0  0  0  0  0  0  0  0  0  0  0
   11.1137    0.6196   15.9707 H   0  0  0  0  0  0  0  0  0  0  0  0
   12.1297   -1.5977   16.9839 H   0  0  0  0  0  0  0  0  0  0  0  0
   10.6278   -1.5860   16.0674 H   0  0  0  0  0  0  0  0  0  0  0  0
   11.4339   -3.2281   14.8250 H   0  0  0  0  0  0  0  0  0  0  0  0
   13.0846   -3.0088   15.3844 H   0  0  0  0  0  0  0  0  0  0  0  0
   10.6094   -0.1480   13.8225 H   0  0  0  0  0  0  0  0  0  0  0  0
   12.0437    0.8184   13.4825 H   0  0  0  0  0  0  0  0  0  0  0  0
  1  2  1  0
  2  3  1  0
  3  4  1  0
  4  5  1  0
  5  6  1  0
  6  7  1  0
  7  8  1  0
  8  9  2  0
  8 10  1  0
  2 11  1  0
 11 12  1  0
 12 13  1  0
 13 14  1  0
 14 15  1  0
 10  5  1  0
 15 11  1  0
  1 16  1  0
  1 17  1  0
  1 18  1  0
  2 19  1  0
  3 20  1  0
  4 21  1  0
  4 22  1  0
  5 23  1  0
  6 24  1  0
  6 25  1  0
  7 26  1  0
  7 27  1  0
 10 28  1  0
 11 29  1  0
 12 30  1  0
 12 31  1  0
 13 32  1  0
 13 33  1  0
 15 34  1  0
 15 35  1  0
M  END
>  <Energy>  (541) 
22.562498390357653

>  <compound_id>  (541) 
63312

>  <target_id>  (541) 
1

>  <reference_id>  (541) 
93

>  <inspiration_ids>  (541) 
[93, 98]

>  <energy_score>  (541) 
-23.801548724227004

>  <distance_score>  (541) 
2.204261988916518

>  <path>  (541) 
/opt/xchem-fragalysis-2/maxwin/BulkDock/SCRATCH/511020/C63312-P93/C63312-P93.minimised.mol

>  <scratch_subdir>  (541) 
/opt/xchem-fragalysis-2/maxwin/BulkDock/SCRATCH/511020/C63312-P93

>  <fragmenstein_runtime>  (541) 
1.4880101680755615

>  <fragmenstein_outcome>  (541) 
too moved

>  <fragmenstein_mode>  (541) 
expansion

>  <fragmenstein_error>  (541) 


$$$$
C63312-P98
     RDKit          3D

 35 36  0  0  0  0  0  0  0  0999 V2000
   13.0920    2.2329   15.9996 C   0  0  0  0  0  0  0  0  0  0  0  0
   13.2097    0.7007   15.8888 C   0  0  0  0  0  0  0  0  0  0  0  0
   14.2869    0.4548   14.9432 N   0  0  0  0  0  0  0  0  0  0  0  0
   15.5045   -0.1060   15.5116 C   0  0  0  0  0  0  0  0  0  0  0  0
   15.4985   -1.6410   15.7307 C   0  0  0  0  0  0  0  0  0  0  0  0
   16.9114   -2.1664   15.9436 C   0  0  0  0  0  0  0  0  0  0  0  0
   17.1386   -2.0335   17.4457 C   0  0  0  0  0  0  0  0  0  0  0  0
   15.7575   -2.2442   17.9911 C   0  0  0  0  0  0  0  0  0  0  0  0
   15.4510   -2.4938   19.1415 O   0  0  0  0  0  0  0  0  0  0  0  0
   14.8673   -2.0633   16.9586 N   0  0  0  0  0  0  0  0  0  0  0  0
   11.8498    0.0522   15.4504 C   0  0  0  0  0  0  0  0  0  0  0  0
   11.6279   -1.4186   15.8605 C   0  0  0  0  0  0  0  0  0  0  0  0
   12.1291   -2.4139   14.8379 C   0  0  0  0  0  0  0  0  0  0  0  0
   12.4375   -1.4498   13.3617 S   0  0  0  0  0  0  0  0  0  0  0  0
   11.5880    0.0482   13.9519 C   0  0  0  0  0  0  0  0  0  0  0  0
   14.0341    2.6771   16.3408 H   0  0  0  0  0  0  0  0  0  0  0  0
   12.8265    2.6894   15.0396 H   0  0  0  0  0  0  0  0  0  0  0  0
   12.3187    2.5060   16.7258 H   0  0  0  0  0  0  0  0  0  0  0  0
   13.4519    0.3249   16.8900 H   0  0  0  0  0  0  0  0  0  0  0  0
   13.9841   -0.1495   14.1732 H   0  0  0  0  0  0  0  0  0  0  0  0
   16.2969    0.1244   14.7886 H   0  0  0  0  0  0  0  0  0  0  0  0
   15.7784    0.4261   16.4313 H   0  0  0  0  0  0  0  0  0  0  0  0
   15.0501   -2.1543   14.8779 H   0  0  0  0  0  0  0  0  0  0  0  0
   17.6761   -1.6502   15.3555 H   0  0  0  0  0  0  0  0  0  0  0  0
   16.9522   -3.2296   15.6701 H   0  0  0  0  0  0  0  0  0  0  0  0
   17.8289   -2.7942   17.8175 H   0  0  0  0  0  0  0  0  0  0  0  0
   17.4877   -1.0339   17.7202 H   0  0  0  0  0  0  0  0  0  0  0  0
   13.8818   -2.1561   17.1336 H   0  0  0  0  0  0  0  0  0  0  0  0
   11.0589    0.6439   15.9316 H   0  0  0  0  0  0  0  0  0  0  0  0
   12.0445   -1.6258   16.8406 H   0  0  0  0  0  0  0  0  0  0  0  0
   10.5436   -1.5688   15.9313 H   0  0  0  0  0  0  0  0  0  0  0  0
   11.3747   -3.1810   14.6367 H   0  0  0  0  0  0  0  0  0  0  0  0
   13.0291   -2.9266   15.1694 H   0  0  0  0  0  0  0  0  0  0  0  0
   10.5167   -0.0162   13.7535 H   0  0  0  0  0  0  0  0  0  0  0  0
   11.9650    0.9388   13.4412 H   0  0  0  0  0  0  0  0  0  0  0  0
  1  2  1  0
  2  3  1  0
  3  4  1  0
  4  5  1  0
  5  6  1  0
  6  7  1  0
  7  8  1  0
  8  9  2  0
  8 10  1  0
  2 11  1  0
 11 12  1  0
 12 13  1  0
 13 14  1  0
 14 15  1  0
 10  5  1  0
 15 11  1  0
  1 16  1  0
  1 17  1  0
  1 18  1  0
  2 19  1  0
  3 20  1  0
  4 21  1  0
  4 22  1  0
  5 23  1  0
  6 24  1  0
  6 25  1  0
  7 26  1  0
  7 27  1  0
 10 28  1  0
 11 29  1  0
 12 30  1  0
 12 31  1  0
 13 32  1  0
 13 33  1  0
 15 34  1  0
 15 35  1  0
M  END
>  <Energy>  (542) 
20.829704898327279

>  <compound_id>  (542) 
63312

>  <target_id>  (542) 
1

>  <reference_id>  (542) 
98

>  <inspiration_ids>  (542) 
[93, 98]

>  <energy_score>  (542) 
-25.53434221625713

>  <distance_score>  (542) 
2.2125971160188627

>  <path>  (542) 
/opt/xchem-fragalysis-2/maxwin/BulkDock/SCRATCH/511020/C63312-P98/C63312-P98.minimised.mol

>  <scratch_subdir>  (542) 
/opt/xchem-fragalysis-2/maxwin/BulkDock/SCRATCH/511020/C63312-P98

>  <fragmenstein_runtime>  (542) 
1.5037922859191895

>  <fragmenstein_outcome>  (542) 
too moved

>  <fragmenstein_mode>  (542) 
expansion

>  <fragmenstein_error>  (542) 


$$$$
C63313-P93
     RDKit          3D

 32 33  0  0  0  0  0  0  0  0999 V2000
   13.2186    2.2611   15.5250 C   0  0  0  0  0  0  0  0  0  0  0  0
   13.1828    0.9581   14.6977 C   0  0  0  0  0  0  0  0  0  0  0  0
   14.5080    0.3353   14.6532 N   0  0  0  0  0  0  0  0  0  0  0  0
   15.0197   -0.2424   15.9048 C   0  0  0  0  0  0  0  0  0  0  0  0
   14.8673   -1.7656   15.9834 C   0  0  0  0  0  0  0  0  0  0  0  0
   15.7160   -2.5356   17.0258 C   0  0  0  0  0  0  0  0  0  0  0  0
   14.3790   -3.2476   17.3273 C   0  0  0  0  0  0  0  0  0  0  0  0
   13.9565   -4.2895   17.7556 O   0  0  0  0  0  0  0  0  0  0  0  0
   13.6963   -2.2101   16.7874 N   0  0  0  0  0  0  0  0  0  0  0  0
   12.0887   -0.0136   15.1392 C   0  0  0  0  0  0  0  0  0  0  0  0
   10.6684    0.5231   14.9341 C   0  0  0  0  0  0  0  0  0  0  0  0
    9.6929   -0.5958   15.2609 C   0  0  0  0  0  0  0  0  0  0  0  0
   10.7009   -2.1088   15.2118 S   0  0  0  0  0  0  0  0  0  0  0  0
   12.0631   -1.3178   14.3547 C   0  0  0  0  0  0  0  0  0  0  0  0
   14.0555    2.8985   15.2185 H   0  0  0  0  0  0  0  0  0  0  0  0
   12.3022    2.8401   15.3709 H   0  0  0  0  0  0  0  0  0  0  0  0
   13.3119    2.0640   16.5975 H   0  0  0  0  0  0  0  0  0  0  0  0
   12.9638    1.2559   13.6635 H   0  0  0  0  0  0  0  0  0  0  0  0
   15.1790    1.0318   14.3224 H   0  0  0  0  0  0  0  0  0  0  0  0
   14.6264    0.2517   16.7999 H   0  0  0  0  0  0  0  0  0  0  0  0
   16.0971   -0.0313   15.9133 H   0  0  0  0  0  0  0  0  0  0  0  0
   14.9240   -2.2547   15.0013 H   0  0  0  0  0  0  0  0  0  0  0  0
   16.4932   -3.1791   16.6090 H   0  0  0  0  0  0  0  0  0  0  0  0
   16.1044   -1.9564   17.8682 H   0  0  0  0  0  0  0  0  0  0  0  0
   12.7874   -2.4973   16.4363 H   0  0  0  0  0  0  0  0  0  0  0  0
   12.2288   -0.1879   16.2153 H   0  0  0  0  0  0  0  0  0  0  0  0
   10.4660    1.3928   15.5687 H   0  0  0  0  0  0  0  0  0  0  0  0
   10.5228    0.8523   13.8965 H   0  0  0  0  0  0  0  0  0  0  0  0
    8.8609   -0.6285   14.5550 H   0  0  0  0  0  0  0  0  0  0  0  0
    9.2561   -0.4491   16.2476 H   0  0  0  0  0  0  0  0  0  0  0  0
   12.9521   -1.9351   14.3692 H   0  0  0  0  0  0  0  0  0  0  0  0
   11.8225   -1.1474   13.3040 H   0  0  0  0  0  0  0  0  0  0  0  0
  1  2  1  0
  2  3  1  0
  3  4  1  0
  4  5  1  0
  5  6  1  0
  6  7  1  0
  7  8  2  0
  7  9  1  0
  2 10  1  0
 10 11  1  0
 11 12  1  0
 12 13  1  0
 13 14  1  0
  9  5  1  0
 14 10  1  0
  1 15  1  0
  1 16  1  0
  1 17  1  0
  2 18  1  0
  3 19  1  0
  4 20  1  0
  4 21  1  0
  5 22  1  0
  6 23  1  0
  6 24  1  0
  9 25  1  0
 10 26  1  0
 11 27  1  0
 11 28  1  0
 12 29  1  0
 12 30  1  0
 14 31  1  0
 14 32  1  0
M  END
>  <Energy>  (543) 
16.909986498741276

>  <compound_id>  (543) 
63313

>  <target_id>  (543) 
1

>  <reference_id>  (543) 
93

>  <inspiration_ids>  (543) 
[93, 98]

>  <energy_score>  (543) 
-30.71489995197568

>  <distance_score>  (543) 
2.2351179926046734

>  <path>  (543) 
/opt/xchem-fragalysis-2/maxwin/BulkDock/SCRATCH/511020/C63313-P93/C63313-P93.minimised.mol

>  <scratch_subdir>  (543) 
/opt/xchem-fragalysis-2/maxwin/BulkDock/SCRATCH/511020/C63313-P93

>  <fragmenstein_runtime>  (543) 
1.7874603271484375

>  <fragmenstein_outcome>  (543) 
too moved

>  <fragmenstein_mode>  (543) 
expansion

>  <fragmenstein_error>  (543) 


$$$$
C63313-P98
     RDKit          3D

 32 33  0  0  0  0  0  0  0  0999 V2000
   12.9761    1.7981   15.7263 C   0  0  0  0  0  0  0  0  0  0  0  0
   13.2652    0.6769   14.7126 C   0  0  0  0  0  0  0  0  0  0  0  0
   14.6943    0.4093   14.5855 N   0  0  0  0  0  0  0  0  0  0  0  0
   15.5339    0.2500   15.7647 C   0  0  0  0  0  0  0  0  0  0  0  0
   15.6317   -1.1052   16.4935 C   0  0  0  0  0  0  0  0  0  0  0  0
   14.6376   -1.4176   17.6249 C   0  0  0  0  0  0  0  0  0  0  0  0
   14.3644   -2.7145   16.8502 C   0  0  0  0  0  0  0  0  0  0  0  0
   13.7657   -3.7464   17.0245 O   0  0  0  0  0  0  0  0  0  0  0  0
   15.1291   -2.2959   15.8028 N   0  0  0  0  0  0  0  0  0  0  0  0
   12.4841   -0.6215   14.9277 C   0  0  0  0  0  0  0  0  0  0  0  0
   10.9703   -0.4812   14.9361 C   0  0  0  0  0  0  0  0  0  0  0  0
   10.4706   -1.8968   15.1306 C   0  0  0  0  0  0  0  0  0  0  0  0
   11.5761   -2.9616   14.1988 S   0  0  0  0  0  0  0  0  0  0  0  0
   12.7474   -1.6619   13.8377 C   0  0  0  0  0  0  0  0  0  0  0  0
   11.9376    2.1344   15.6407 H   0  0  0  0  0  0  0  0  0  0  0  0
   13.1327    1.4659   16.7568 H   0  0  0  0  0  0  0  0  0  0  0  0
   13.6127    2.6703   15.5407 H   0  0  0  0  0  0  0  0  0  0  0  0
   12.9563    1.0777   13.7375 H   0  0  0  0  0  0  0  0  0  0  0  0
   14.8981   -0.3246   13.9103 H   0  0  0  0  0  0  0  0  0  0  0  0
   15.3608    1.0465   16.4969 H   0  0  0  0  0  0  0  0  0  0  0  0
   16.5479    0.4613   15.3979 H   0  0  0  0  0  0  0  0  0  0  0  0
   16.6697   -1.2661   16.8206 H   0  0  0  0  0  0  0  0  0  0  0  0
   13.7889   -0.7415   17.7205 H   0  0  0  0  0  0  0  0  0  0  0  0
   15.0913   -1.5769   18.6068 H   0  0  0  0  0  0  0  0  0  0  0  0
   15.6324   -3.0105   15.2923 H   0  0  0  0  0  0  0  0  0  0  0  0
   12.7533   -1.0162   15.9046 H   0  0  0  0  0  0  0  0  0  0  0  0
   10.6191    0.1560   15.7544 H   0  0  0  0  0  0  0  0  0  0  0  0
   10.6075   -0.0389   14.0015 H   0  0  0  0  0  0  0  0  0  0  0  0
    9.4134   -2.0232   14.8940 H   0  0  0  0  0  0  0  0  0  0  0  0
   10.6357   -2.1843   16.1599 H   0  0  0  0  0  0  0  0  0  0  0  0
   13.7568   -2.0649   13.8093 H   0  0  0  0  0  0  0  0  0  0  0  0
   12.5336   -1.2528   12.8461 H   0  0  0  0  0  0  0  0  0  0  0  0
  1  2  1  0
  2  3  1  0
  3  4  1  0
  4  5  1  0
  5  6  1  0
  6  7  1  0
  7  8  2  0
  7  9  1  0
  2 10  1  0
 10 11  1  0
 11 12  1  0
 12 13  1  0
 13 14  1  0
  9  5  1  0
 14 10  1  0
  1 15  1  0
  1 16  1  0
  1 17  1  0
  2 18  1  0
  3 19  1  0
  4 20  1  0
  4 21  1  0
  5 22  1  0
  6 23  1  0
  6 24  1  0
  9 25  1  0
 10 26  1  0
 11 27  1  0
 11 28  1  0
 12 29  1  0
 12 30  1  0
 14 31  1  0
 14 32  1  0
M  END
>  <Energy>  (544) 
20.335130376757071

>  <compound_id>  (544) 
63313

>  <target_id>  (544) 
1

>  <reference_id>  (544) 
98

>  <inspiration_ids>  (544) 
[93, 98]

>  <energy_score>  (544) 
-27.289756073959595

>  <distance_score>  (544) 
2.1060646148377034

>  <path>  (544) 
/opt/xchem-fragalysis-2/maxwin/BulkDock/SCRATCH/511020/C63313-P98/C63313-P98.minimised.mol

>  <scratch_subdir>  (544) 
/opt/xchem-fragalysis-2/maxwin/BulkDock/SCRATCH/511020/C63313-P98

>  <fragmenstein_runtime>  (544) 
1.891517162322998

>  <fragmenstein_outcome>  (544) 
too moved

>  <fragmenstein_mode>  (544) 
expansion

>  <fragmenstein_error>  (544) 


$$$$
C63316-P93
     RDKit          3D

 42 44  0  0  0  0  0  0  0  0999 V2000
   14.0567    1.3930   16.9036 C   0  0  0  0  0  0  0  0  0  0  0  0
   14.5048   -0.0828   16.9974 C   0  0  0  0  0  0  0  0  0  0  0  0
   13.6352   -1.1273   16.4389 N   0  0  0  0  0  0  0  0  0  0  0  0
   12.6872   -0.6972   15.4106 C   0  0  0  0  0  0  0  0  0  0  0  0
   13.1988   -0.1199   14.1032 C   0  0  0  0  0  0  0  0  0  0  0  0
   12.2170    0.8650   13.4520 C   0  0  0  0  0  0  0  0  0  0  0  0
   12.7969    1.8185   12.4151 C   0  0  0  0  0  0  0  0  0  0  0  0
   11.7622    2.9119   12.3848 C   0  0  0  0  0  0  0  0  0  0  0  0
   11.4133    3.0314   13.8508 C   0  0  0  0  0  0  0  0  0  0  0  0
   11.6125    1.7370   14.4348 O   0  0  0  0  0  0  0  0  0  0  0  0
   13.8340   -1.1390   13.1680 C   0  0  0  0  0  0  0  0  0  0  0  0
   14.6833   -0.0636   13.7544 C   0  0  0  0  0  0  0  0  0  0  0  0
   14.1071   -2.5309   16.2771 C   0  0  0  0  0  0  0  0  0  0  0  0
   15.5479   -2.7839   15.8089 C   0  0  0  0  0  0  0  0  0  0  0  0
   16.3815   -2.8425   17.0725 C   0  0  0  0  0  0  0  0  0  0  0  0
   15.4717   -3.3660   18.0339 N   0  0  0  0  0  0  0  0  0  0  0  0
   14.1650   -3.3351   17.5863 C   0  0  0  0  0  0  0  0  0  0  0  0
   13.2715   -3.9540   18.1369 O   0  0  0  0  0  0  0  0  0  0  0  0
   13.0609    1.5377   17.3283 H   0  0  0  0  0  0  0  0  0  0  0  0
   14.0631    1.7612   15.8756 H   0  0  0  0  0  0  0  0  0  0  0  0
   14.7510    2.0183   17.4754 H   0  0  0  0  0  0  0  0  0  0  0  0
   14.6354   -0.3100   18.0626 H   0  0  0  0  0  0  0  0  0  0  0  0
   15.5043   -0.1307   16.5577 H   0  0  0  0  0  0  0  0  0  0  0  0
   12.0135    0.0125   15.9019 H   0  0  0  0  0  0  0  0  0  0  0  0
   12.0068   -1.5254   15.1653 H   0  0  0  0  0  0  0  0  0  0  0  0
   11.3933    0.2905   13.0112 H   0  0  0  0  0  0  0  0  0  0  0  0
   13.7385    2.2639   12.7545 H   0  0  0  0  0  0  0  0  0  0  0  0
   12.9688    1.3506   11.4447 H   0  0  0  0  0  0  0  0  0  0  0  0
   12.1224    3.8501   11.9548 H   0  0  0  0  0  0  0  0  0  0  0  0
   10.8931    2.5821   11.8076 H   0  0  0  0  0  0  0  0  0  0  0  0
   10.3801    3.3526   14.0102 H   0  0  0  0  0  0  0  0  0  0  0  0
   12.0798    3.7331   14.3631 H   0  0  0  0  0  0  0  0  0  0  0  0
   13.9812   -2.1546   13.5033 H   0  0  0  0  0  0  0  0  0  0  0  0
   13.6619   -1.0821   12.1006 H   0  0  0  0  0  0  0  0  0  0  0  0
   15.4322   -0.2996   14.4858 H   0  0  0  0  0  0  0  0  0  0  0  0
   15.0727    0.6751   13.0629 H   0  0  0  0  0  0  0  0  0  0  0  0
   13.4223   -3.0860   15.6251 H   0  0  0  0  0  0  0  0  0  0  0  0
   15.9581   -2.0876   15.0845 H   0  0  0  0  0  0  0  0  0  0  0  0
   15.5894   -3.7696   15.3261 H   0  0  0  0  0  0  0  0  0  0  0  0
   17.2403   -3.5120   16.9734 H   0  0  0  0  0  0  0  0  0  0  0  0
   16.7260   -1.8633   17.4129 H   0  0  0  0  0  0  0  0  0  0  0  0
   15.7168   -3.8890   18.8649 H   0  0  0  0  0  0  0  0  0  0  0  0
  1  2  1  0
  2  3  1  0
  3  4  1  0
  4  5  1  0
  5  6  1  0
  6  7  1  0
  7  8  1  0
  8  9  1  0
  9 10  1  0
  5 11  1  0
 11 12  1  0
  3 13  1  0
 13 14  1  0
 14 15  1  0
 15 16  1  0
 16 17  1  0
 17 18  2  0
 12  5  1  0
 17 13  1  0
 10  6  1  0
  1 19  1  0
  1 20  1  0
  1 21  1  0
  2 22  1  0
  2 23  1  0
  4 24  1  0
  4 25  1  0
  6 26  1  0
  7 27  1  0
  7 28  1  0
  8 29  1  0
  8 30  1  0
  9 31  1  0
  9 32  1  0
 11 33  1  0
 11 34  1  0
 12 35  1  0
 12 36  1  0
 13 37  1  0
 14 38  1  0
 14 39  1  0
 15 40  1  0
 15 41  1  0
 16 42  1  0
M  END
>  <Energy>  (545) 
69.962106450666582

>  <compound_id>  (545) 
63316

>  <target_id>  (545) 
1

>  <reference_id>  (545) 
93

>  <inspiration_ids>  (545) 
[93, 98]

>  <energy_score>  (545) 
-43.630451960149315

>  <distance_score>  (545) 
2.4983923764101488

>  <path>  (545) 
/opt/xchem-fragalysis-2/maxwin/BulkDock/SCRATCH/511020/C63316-P93/C63316-P93.minimised.mol

>  <scratch_subdir>  (545) 
/opt/xchem-fragalysis-2/maxwin/BulkDock/SCRATCH/511020/C63316-P93

>  <fragmenstein_runtime>  (545) 
1.7955231666564941

>  <fragmenstein_outcome>  (545) 
too moved

>  <fragmenstein_mode>  (545) 
expansion

>  <fragmenstein_error>  (545) 


$$$$
C63316-P98
     RDKit          3D

 42 44  0  0  0  0  0  0  0  0999 V2000
   14.3155    1.5870   17.1047 C   0  0  0  0  0  0  0  0  0  0  0  0
   13.8360    0.1247   17.0820 C   0  0  0  0  0  0  0  0  0  0  0  0
   14.6694   -0.8097   16.3113 N   0  0  0  0  0  0  0  0  0  0  0  0
   14.6909   -0.4273   14.8863 C   0  0  0  0  0  0  0  0  0  0  0  0
   13.4567   -0.6260   14.0165 C   0  0  0  0  0  0  0  0  0  0  0  0
   12.7316    0.6313   13.5394 C   0  0  0  0  0  0  0  0  0  0  0  0
   13.5297    1.5388   12.6186 C   0  0  0  0  0  0  0  0  0  0  0  0
   12.7374    2.8191   12.7185 C   0  0  0  0  0  0  0  0  0  0  0  0
   12.2988    2.8241   14.1698 C   0  0  0  0  0  0  0  0  0  0  0  0
   12.2948    1.4608   14.6268 O   0  0  0  0  0  0  0  0  0  0  0  0
   12.6162   -1.9053   13.9705 C   0  0  0  0  0  0  0  0  0  0  0  0
   13.6639   -1.6771   12.9399 C   0  0  0  0  0  0  0  0  0  0  0  0
   14.3541   -2.2561   16.5556 C   0  0  0  0  0  0  0  0  0  0  0  0
   15.3003   -3.2044   15.7989 C   0  0  0  0  0  0  0  0  0  0  0  0
   16.5849   -3.1571   16.6088 C   0  0  0  0  0  0  0  0  0  0  0  0
   16.1036   -3.0713   17.9484 N   0  0  0  0  0  0  0  0  0  0  0  0
   14.7471   -2.7958   17.9360 C   0  0  0  0  0  0  0  0  0  0  0  0
   13.9985   -3.1347   18.8363 O   0  0  0  0  0  0  0  0  0  0  0  0
   13.6638    2.1766   17.7580 H   0  0  0  0  0  0  0  0  0  0  0  0
   14.3155    2.0619   16.1247 H   0  0  0  0  0  0  0  0  0  0  0  0
   15.3325    1.6455   17.5069 H   0  0  0  0  0  0  0  0  0  0  0  0
   12.8005    0.0760   16.7324 H   0  0  0  0  0  0  0  0  0  0  0  0
   13.8360   -0.2011   18.1276 H   0  0  0  0  0  0  0  0  0  0  0  0
   15.5464   -0.9306   14.4198 H   0  0  0  0  0  0  0  0  0  0  0  0
   15.0179    0.6136   14.8100 H   0  0  0  0  0  0  0  0  0  0  0  0
   11.8135    0.3396   13.0095 H   0  0  0  0  0  0  0  0  0  0  0  0
   14.5473    1.7080   12.9848 H   0  0  0  0  0  0  0  0  0  0  0  0
   13.5990    1.1553   11.5971 H   0  0  0  0  0  0  0  0  0  0  0  0
   13.3059    3.7111   12.4424 H   0  0  0  0  0  0  0  0  0  0  0  0
   11.8581    2.7645   12.0651 H   0  0  0  0  0  0  0  0  0  0  0  0
   11.3004    3.2526   14.2977 H   0  0  0  0  0  0  0  0  0  0  0  0
   12.9979    3.3905   14.7922 H   0  0  0  0  0  0  0  0  0  0  0  0
   12.7594   -2.7678   14.5958 H   0  0  0  0  0  0  0  0  0  0  0  0
   11.5757   -1.8210   13.6760 H   0  0  0  0  0  0  0  0  0  0  0  0
   14.5478   -2.3029   12.9479 H   0  0  0  0  0  0  0  0  0  0  0  0
   13.3709   -1.4452   11.9269 H   0  0  0  0  0  0  0  0  0  0  0  0
   13.2959   -2.4796   16.4220 H   0  0  0  0  0  0  0  0  0  0  0  0
   15.4913   -2.9813   14.7529 H   0  0  0  0  0  0  0  0  0  0  0  0
   14.8952   -4.2237   15.8513 H   0  0  0  0  0  0  0  0  0  0  0  0
   17.1906   -4.0587   16.4855 H   0  0  0  0  0  0  0  0  0  0  0  0
   17.1909   -2.2717   16.3949 H   0  0  0  0  0  0  0  0  0  0  0  0
   16.4614   -3.6193   18.7205 H   0  0  0  0  0  0  0  0  0  0  0  0
  1  2  1  0
  2  3  1  0
  3  4  1  0
  4  5  1  0
  5  6  1  0
  6  7  1  0
  7  8  1  0
  8  9  1  0
  9 10  1  0
  5 11  1  0
 11 12  1  0
  3 13  1  0
 13 14  1  0
 14 15  1  0
 15 16  1  0
 16 17  1  0
 17 18  2  0
 12  5  1  0
 17 13  1  0
 10  6  1  0
  1 19  1  0
  1 20  1  0
  1 21  1  0
  2 22  1  0
  2 23  1  0
  4 24  1  0
  4 25  1  0
  6 26  1  0
  7 27  1  0
  7 28  1  0
  8 29  1  0
  8 30  1  0
  9 31  1  0
  9 32  1  0
 11 33  1  0
 11 34  1  0
 12 35  1  0
 12 36  1  0
 13 37  1  0
 14 38  1  0
 14 39  1  0
 15 40  1  0
 15 41  1  0
 16 42  1  0
M  END
>  <Energy>  (546) 
66.09914516540745

>  <compound_id>  (546) 
63316

>  <target_id>  (546) 
1

>  <reference_id>  (546) 
98

>  <inspiration_ids>  (546) 
[93, 98]

>  <energy_score>  (546) 
-47.49341324540879

>  <distance_score>  (546) 
2.173500439234737

>  <path>  (546) 
/opt/xchem-fragalysis-2/maxwin/BulkDock/SCRATCH/511020/C63316-P98/C63316-P98.minimised.mol

>  <scratch_subdir>  (546) 
/opt/xchem-fragalysis-2/maxwin/BulkDock/SCRATCH/511020/C63316-P98

>  <fragmenstein_runtime>  (546) 
2.0750701427459717

>  <fragmenstein_outcome>  (546) 
too moved

>  <fragmenstein_mode>  (546) 
expansion

>  <fragmenstein_error>  (546) 


$$$$
C63319-P93
     RDKit          3D

 32 33  0  0  0  0  0  0  0  0999 V2000
   14.3340    1.4108   16.6862 C   0  0  0  0  0  0  0  0  0  0  0  0
   14.3608   -0.0889   17.0562 C   0  0  0  0  0  0  0  0  0  0  0  0
   14.8404   -1.0278   16.0015 N   0  0  0  0  0  0  0  0  0  0  0  0
   14.0992   -0.7661   14.7205 C   0  0  0  0  0  0  0  0  0  0  0  0
   12.6631   -1.1405   14.8242 C   0  0  0  0  0  0  0  0  0  0  0  0
   11.7339   -0.6166   15.5972 N   0  0  0  0  0  0  0  0  0  0  0  0
   10.7560   -1.5677   15.7011 N   0  0  0  0  0  0  0  0  0  0  0  0
   11.0761   -2.6509   15.0174 N   0  0  0  0  0  0  0  0  0  0  0  0
   12.1618   -2.3058   14.3242 N   0  0  0  0  0  0  0  0  0  0  0  0
   14.7187   -2.5123   16.3373 C   0  0  0  0  0  0  0  0  0  0  0  0
   15.7294   -3.3375   15.4876 C   0  0  0  0  0  0  0  0  0  0  0  0
   17.1886   -3.1631   15.9361 C   0  0  0  0  0  0  0  0  0  0  0  0
   17.3312   -3.3622   17.4432 C   0  0  0  0  0  0  0  0  0  0  0  0
   16.3307   -2.5840   18.1398 N   0  0  0  0  0  0  0  0  0  0  0  0
   15.0490   -2.9585   17.7608 C   0  0  0  0  0  0  0  0  0  0  0  0
   14.4018   -3.8161   18.3583 O   0  0  0  0  0  0  0  0  0  0  0  0
   13.5264    1.6479   15.9882 H   0  0  0  0  0  0  0  0  0  0  0  0
   15.2885    1.7218   16.2500 H   0  0  0  0  0  0  0  0  0  0  0  0
   14.1670    2.0066   17.5900 H   0  0  0  0  0  0  0  0  0  0  0  0
   13.3750   -0.3844   17.4252 H   0  0  0  0  0  0  0  0  0  0  0  0
   15.0335   -0.1692   17.9158 H   0  0  0  0  0  0  0  0  0  0  0  0
   14.5728   -1.3269   13.9068 H   0  0  0  0  0  0  0  0  0  0  0  0
   14.1992    0.2789   14.4109 H   0  0  0  0  0  0  0  0  0  0  0  0
   12.5373   -2.9526   13.6463 H   0  0  0  0  0  0  0  0  0  0  0  0
   13.7053   -2.8820   16.1792 H   0  0  0  0  0  0  0  0  0  0  0  0
   15.4794   -4.4012   15.5937 H   0  0  0  0  0  0  0  0  0  0  0  0
   15.6564   -3.1003   14.4232 H   0  0  0  0  0  0  0  0  0  0  0  0
   17.8360   -3.8658   15.4002 H   0  0  0  0  0  0  0  0  0  0  0  0
   17.5222   -2.1522   15.6707 H   0  0  0  0  0  0  0  0  0  0  0  0
   17.1938   -4.4185   17.7030 H   0  0  0  0  0  0  0  0  0  0  0  0
   18.3186   -3.0419   17.7890 H   0  0  0  0  0  0  0  0  0  0  0  0
   16.4948   -1.6044   17.9439 H   0  0  0  0  0  0  0  0  0  0  0  0
  1  2  1  0
  2  3  1  0
  3  4  1  0
  4  5  1  0
  5  6  2  0
  6  7  1  0
  7  8  2  0
  8  9  1  0
  3 10  1  0
 10 11  1  0
 11 12  1  0
 12 13  1  0
 13 14  1  0
 14 15  1  0
 15 16  2  0
  9  5  1  0
 15 10  1  0
  1 17  1  0
  1 18  1  0
  1 19  1  0
  2 20  1  0
  2 21  1  0
  4 22  1  0
  4 23  1  0
  9 24  1  0
 10 25  1  0
 11 26  1  0
 11 27  1  0
 12 28  1  0
 12 29  1  0
 13 30  1  0
 13 31  1  0
 14 32  1  0
M  END
>  <Energy>  (547) 
51.9999607545966

>  <compound_id>  (547) 
63319

>  <target_id>  (547) 
1

>  <reference_id>  (547) 
93

>  <inspiration_ids>  (547) 
[93, 98]

>  <energy_score>  (547) 
-2.31738219621068

>  <distance_score>  (547) 
2.2009580075919835

>  <path>  (547) 
/opt/xchem-fragalysis-2/maxwin/BulkDock/SCRATCH/511020/C63319-P93/C63319-P93.minimised.mol

>  <scratch_subdir>  (547) 
/opt/xchem-fragalysis-2/maxwin/BulkDock/SCRATCH/511020/C63319-P93

>  <fragmenstein_runtime>  (547) 
2.140144109725952

>  <fragmenstein_outcome>  (547) 
too moved

>  <fragmenstein_mode>  (547) 
expansion

>  <fragmenstein_error>  (547) 


$$$$
C63319-P98
     RDKit          3D

 32 33  0  0  0  0  0  0  0  0999 V2000
   14.3936    1.2836   16.5686 C   0  0  0  0  0  0  0  0  0  0  0  0
   14.4588   -0.2249   16.8981 C   0  0  0  0  0  0  0  0  0  0  0  0
   14.8688   -1.1174   15.7846 N   0  0  0  0  0  0  0  0  0  0  0  0
   14.0379   -0.8716   14.5705 C   0  0  0  0  0  0  0  0  0  0  0  0
   12.6133   -1.2399   14.7848 C   0  0  0  0  0  0  0  0  0  0  0  0
   11.7142   -0.6477   15.5429 N   0  0  0  0  0  0  0  0  0  0  0  0
   10.6909   -1.5451   15.6791 N   0  0  0  0  0  0  0  0  0  0  0  0
   10.9567   -2.6693   15.0394 N   0  0  0  0  0  0  0  0  0  0  0  0
   12.0746   -2.4176   14.3590 N   0  0  0  0  0  0  0  0  0  0  0  0
   14.9073   -2.6067   16.0680 C   0  0  0  0  0  0  0  0  0  0  0  0
   16.1415   -3.2412   15.3896 C   0  0  0  0  0  0  0  0  0  0  0  0
   17.4661   -2.9915   16.1158 C   0  0  0  0  0  0  0  0  0  0  0  0
   17.2898   -2.4475   17.5259 C   0  0  0  0  0  0  0  0  0  0  0  0
   16.1214   -2.9877   18.1648 N   0  0  0  0  0  0  0  0  0  0  0  0
   14.9233   -3.0937   17.5179 C   0  0  0  0  0  0  0  0  0  0  0  0
   13.9748   -3.6577   18.0563 O   0  0  0  0  0  0  0  0  0  0  0  0
   15.3199    1.6175   16.0905 H   0  0  0  0  0  0  0  0  0  0  0  0
   14.2670    1.8546   17.4945 H   0  0  0  0  0  0  0  0  0  0  0  0
   13.5491    1.5261   15.9178 H   0  0  0  0  0  0  0  0  0  0  0  0
   13.5018   -0.5398   17.3243 H   0  0  0  0  0  0  0  0  0  0  0  0
   15.1932   -0.3260   17.7037 H   0  0  0  0  0  0  0  0  0  0  0  0
   14.1145    0.1711   14.2457 H   0  0  0  0  0  0  0  0  0  0  0  0
   14.4507   -1.4491   13.7333 H   0  0  0  0  0  0  0  0  0  0  0  0
   12.4301   -3.1167   13.7215 H   0  0  0  0  0  0  0  0  0  0  0  0
   14.0327   -3.1072   15.6522 H   0  0  0  0  0  0  0  0  0  0  0  0
   15.9910   -4.3293   15.3692 H   0  0  0  0  0  0  0  0  0  0  0  0
   16.2256   -2.9366   14.3399 H   0  0  0  0  0  0  0  0  0  0  0  0
   18.0236   -3.9361   16.1546 H   0  0  0  0  0  0  0  0  0  0  0  0
   18.0890   -2.2980   15.5386 H   0  0  0  0  0  0  0  0  0  0  0  0
   18.1603   -2.6900   18.1438 H   0  0  0  0  0  0  0  0  0  0  0  0
   17.1971   -1.3576   17.5092 H   0  0  0  0  0  0  0  0  0  0  0  0
   16.1377   -3.2929   19.1309 H   0  0  0  0  0  0  0  0  0  0  0  0
  1  2  1  0
  2  3  1  0
  3  4  1  0
  4  5  1  0
  5  6  2  0
  6  7  1  0
  7  8  2  0
  8  9  1  0
  3 10  1  0
 10 11  1  0
 11 12  1  0
 12 13  1  0
 13 14  1  0
 14 15  1  0
 15 16  2  0
  9  5  1  0
 15 10  1  0
  1 17  1  0
  1 18  1  0
  1 19  1  0
  2 20  1  0
  2 21  1  0
  4 22  1  0
  4 23  1  0
  9 24  1  0
 10 25  1  0
 11 26  1  0
 11 27  1  0
 12 28  1  0
 12 29  1  0
 13 30  1  0
 13 31  1  0
 14 32  1  0
M  END
>  <Energy>  (548) 
37.751074225784265

>  <compound_id>  (548) 
63319

>  <target_id>  (548) 
1

>  <reference_id>  (548) 
98

>  <inspiration_ids>  (548) 
[93, 98]

>  <energy_score>  (548) 
-16.566268725022876

>  <distance_score>  (548) 
2.3857964107689282

>  <path>  (548) 
/opt/xchem-fragalysis-2/maxwin/BulkDock/SCRATCH/511020/C63319-P98/C63319-P98.minimised.mol

>  <scratch_subdir>  (548) 
/opt/xchem-fragalysis-2/maxwin/BulkDock/SCRATCH/511020/C63319-P98

>  <fragmenstein_runtime>  (548) 
2.376112937927246

>  <fragmenstein_outcome>  (548) 
too moved

>  <fragmenstein_mode>  (548) 
expansion

>  <fragmenstein_error>  (548) 


$$$$
C63320-P93
     RDKit          3D

 29 30  0  0  0  0  0  0  0  0999 V2000
   14.3206    1.8627   16.4847 C   0  0  0  0  0  0  0  0  0  0  0  0
   14.5713    0.3858   16.8343 C   0  0  0  0  0  0  0  0  0  0  0  0
   14.8292   -0.4714   15.6790 N   0  0  0  0  0  0  0  0  0  0  0  0
   13.7795   -0.5205   14.6577 C   0  0  0  0  0  0  0  0  0  0  0  0
   12.7768   -1.5992   14.8000 C   0  0  0  0  0  0  0  0  0  0  0  0
   12.1944   -2.2621   13.8266 N   0  0  0  0  0  0  0  0  0  0  0  0
   11.3998   -3.2028   14.4276 N   0  0  0  0  0  0  0  0  0  0  0  0
   11.5135   -3.1509   15.7416 N   0  0  0  0  0  0  0  0  0  0  0  0
   12.3489   -2.1404   15.9736 N   0  0  0  0  0  0  0  0  0  0  0  0
   15.5182   -1.7819   15.8829 C   0  0  0  0  0  0  0  0  0  0  0  0
   17.0408   -1.6892   16.0625 C   0  0  0  0  0  0  0  0  0  0  0  0
   17.4035   -3.0400   16.6508 C   0  0  0  0  0  0  0  0  0  0  0  0
   16.2846   -3.3478   17.4815 N   0  0  0  0  0  0  0  0  0  0  0  0
   15.1512   -2.6566   17.1093 C   0  0  0  0  0  0  0  0  0  0  0  0
   14.0828   -2.8035   17.6774 O   0  0  0  0  0  0  0  0  0  0  0  0
   15.1064    2.2496   15.8280 H   0  0  0  0  0  0  0  0  0  0  0  0
   14.3223    2.4622   17.4012 H   0  0  0  0  0  0  0  0  0  0  0  0
   13.3506    2.0105   16.0021 H   0  0  0  0  0  0  0  0  0  0  0  0
   15.4441    0.3627   17.4972 H   0  0  0  0  0  0  0  0  0  0  0  0
   13.7257    0.0100   17.4200 H   0  0  0  0  0  0  0  0  0  0  0  0
   13.2554    0.4343   14.5559 H   0  0  0  0  0  0  0  0  0  0  0  0
   14.2797   -0.6583   13.6893 H   0  0  0  0  0  0  0  0  0  0  0  0
   12.6746   -1.9892   16.9226 H   0  0  0  0  0  0  0  0  0  0  0  0
   15.3545   -2.4184   15.0007 H   0  0  0  0  0  0  0  0  0  0  0  0
   17.3018   -0.8955   16.7736 H   0  0  0  0  0  0  0  0  0  0  0  0
   17.5666   -1.4872   15.1244 H   0  0  0  0  0  0  0  0  0  0  0  0
   17.4868   -3.8149   15.8822 H   0  0  0  0  0  0  0  0  0  0  0  0
   18.3185   -3.0105   17.2475 H   0  0  0  0  0  0  0  0  0  0  0  0
   16.2624   -4.0312   18.2290 H   0  0  0  0  0  0  0  0  0  0  0  0
  1  2  1  0
  2  3  1  0
  3  4  1  0
  4  5  1  0
  5  6  2  0
  6  7  1  0
  7  8  2  0
  8  9  1  0
  3 10  1  0
 10 11  1  0
 11 12  1  0
 12 13  1  0
 13 14  1  0
 14 15  2  0
  9  5  1  0
 14 10  1  0
  1 16  1  0
  1 17  1  0
  1 18  1  0
  2 19  1  0
  2 20  1  0
  4 21  1  0
  4 22  1  0
  9 23  1  0
 10 24  1  0
 11 25  1  0
 11 26  1  0
 12 27  1  0
 12 28  1  0
 13 29  1  0
M  END
>  <Energy>  (549) 
20.428062457648601

>  <compound_id>  (549) 
63320

>  <target_id>  (549) 
1

>  <reference_id>  (549) 
93

>  <inspiration_ids>  (549) 
[93, 98]

>  <energy_score>  (549) 
-29.237308039091623

>  <distance_score>  (549) 
1.9968281211683632

>  <path>  (549) 
/opt/xchem-fragalysis-2/maxwin/BulkDock/SCRATCH/511020/C63320-P93/C63320-P93.minimised.mol

>  <scratch_subdir>  (549) 
/opt/xchem-fragalysis-2/maxwin/BulkDock/SCRATCH/511020/C63320-P93

>  <fragmenstein_runtime>  (549) 
0.8730604648590088

>  <fragmenstein_outcome>  (549) 
too moved

>  <fragmenstein_mode>  (549) 
expansion

>  <fragmenstein_error>  (549) 


$$$$
C63320-P98
     RDKit          3D

 29 30  0  0  0  0  0  0  0  0999 V2000
   14.2673    2.0723   16.3935 C   0  0  0  0  0  0  0  0  0  0  0  0
   15.1682    0.8319   16.2796 C   0  0  0  0  0  0  0  0  0  0  0  0
   14.4740   -0.4661   16.1416 N   0  0  0  0  0  0  0  0  0  0  0  0
   13.5880   -0.4466   14.9564 C   0  0  0  0  0  0  0  0  0  0  0  0
   12.6844   -1.6130   14.8844 C   0  0  0  0  0  0  0  0  0  0  0  0
   12.1607   -2.1620   13.8140 N   0  0  0  0  0  0  0  0  0  0  0  0
   11.3806   -3.1942   14.2669 N   0  0  0  0  0  0  0  0  0  0  0  0
   11.4370   -3.2958   15.5835 N   0  0  0  0  0  0  0  0  0  0  0  0
   12.2561   -2.3195   15.9665 N   0  0  0  0  0  0  0  0  0  0  0  0
   15.3989   -1.6651   16.0638 C   0  0  0  0  0  0  0  0  0  0  0  0
   16.9077   -1.5275   16.3430 C   0  0  0  0  0  0  0  0  0  0  0  0
   17.3457   -2.9580   16.6045 C   0  0  0  0  0  0  0  0  0  0  0  0
   16.2343   -3.5115   17.3054 N   0  0  0  0  0  0  0  0  0  0  0  0
   15.0725   -2.8011   17.0871 C   0  0  0  0  0  0  0  0  0  0  0  0
   14.0159   -3.1039   17.6161 O   0  0  0  0  0  0  0  0  0  0  0  0
   13.8017    2.3289   15.4377 H   0  0  0  0  0  0  0  0  0  0  0  0
   14.8661    2.9350   16.7044 H   0  0  0  0  0  0  0  0  0  0  0  0
   13.4833    1.9201   17.1422 H   0  0  0  0  0  0  0  0  0  0  0  0
   15.8668    0.9837   15.4474 H   0  0  0  0  0  0  0  0  0  0  0  0
   15.7576    0.8059   17.2029 H   0  0  0  0  0  0  0  0  0  0  0  0
   14.1766   -0.3672   14.0335 H   0  0  0  0  0  0  0  0  0  0  0  0
   12.9233    0.4230   14.9868 H   0  0  0  0  0  0  0  0  0  0  0  0
   12.5561   -2.2695   16.9361 H   0  0  0  0  0  0  0  0  0  0  0  0
   15.3149   -2.1296   15.0698 H   0  0  0  0  0  0  0  0  0  0  0  0
   17.0885   -0.9337   17.2471 H   0  0  0  0  0  0  0  0  0  0  0  0
   17.4534   -1.0687   15.5134 H   0  0  0  0  0  0  0  0  0  0  0  0
   17.4885   -3.5229   15.6779 H   0  0  0  0  0  0  0  0  0  0  0  0
   18.2471   -3.0190   17.2192 H   0  0  0  0  0  0  0  0  0  0  0  0
   16.2491   -4.3240   17.9103 H   0  0  0  0  0  0  0  0  0  0  0  0
  1  2  1  0
  2  3  1  0
  3  4  1  0
  4  5  1  0
  5  6  2  0
  6  7  1  0
  7  8  2  0
  8  9  1  0
  3 10  1  0
 10 11  1  0
 11 12  1  0
 12 13  1  0
 13 14  1  0
 14 15  2  0
  9  5  1  0
 14 10  1  0
  1 16  1  0
  1 17  1  0
  1 18  1  0
  2 19  1  0
  2 20  1  0
  4 21  1  0
  4 22  1  0
  9 23  1  0
 10 24  1  0
 11 25  1  0
 11 26  1  0
 12 27  1  0
 12 28  1  0
 13 29  1  0
M  END
>  <Energy>  (550) 
19.029566271216176

>  <compound_id>  (550) 
63320

>  <target_id>  (550) 
1

>  <reference_id>  (550) 
98

>  <inspiration_ids>  (550) 
[93, 98]

>  <energy_score>  (550) 
-30.635804225523643

>  <distance_score>  (550) 
1.9702312731616018

>  <path>  (550) 
/opt/xchem-fragalysis-2/maxwin/BulkDock/SCRATCH/511020/C63320-P98/C63320-P98.minimised.mol

>  <scratch_subdir>  (550) 
/opt/xchem-fragalysis-2/maxwin/BulkDock/SCRATCH/511020/C63320-P98

>  <fragmenstein_runtime>  (550) 
1.0614941120147705

>  <fragmenstein_outcome>  (550) 
too moved

>  <fragmenstein_mode>  (550) 
expansion

>  <fragmenstein_error>  (550) 


$$$$
C63321-P93
     RDKit          3D

 32 33  0  0  0  0  0  0  0  0999 V2000
   14.3886    2.0138   16.2724 C   0  0  0  0  0  0  0  0  0  0  0  0
   15.2535    0.7592   16.0651 C   0  0  0  0  0  0  0  0  0  0  0  0
   14.4974   -0.4744   15.8239 N   0  0  0  0  0  0  0  0  0  0  0  0
   13.7646   -0.4339   14.5412 C   0  0  0  0  0  0  0  0  0  0  0  0
   12.6282   -1.3694   14.6321 C   0  0  0  0  0  0  0  0  0  0  0  0
   12.5911   -2.6403   14.3059 N   0  0  0  0  0  0  0  0  0  0  0  0
   11.4427   -3.1416   14.8639 N   0  0  0  0  0  0  0  0  0  0  0  0
   10.7577   -2.1842   15.4676 N   0  0  0  0  0  0  0  0  0  0  0  0
   11.4538   -1.0703   15.2425 N   0  0  0  0  0  0  0  0  0  0  0  0
   10.8884    0.2195   15.5083 C   0  0  0  0  0  0  0  0  0  0  0  0
   15.2678   -1.7883   15.8843 C   0  0  0  0  0  0  0  0  0  0  0  0
   16.7783   -1.7876   16.2089 C   0  0  0  0  0  0  0  0  0  0  0  0
   16.8579   -2.0169   17.7006 C   0  0  0  0  0  0  0  0  0  0  0  0
   15.7441   -2.8590   17.9657 N   0  0  0  0  0  0  0  0  0  0  0  0
   14.7528   -2.7425   17.0112 C   0  0  0  0  0  0  0  0  0  0  0  0
   13.7019   -3.3491   17.1200 O   0  0  0  0  0  0  0  0  0  0  0  0
   13.6391    1.8450   17.0524 H   0  0  0  0  0  0  0  0  0  0  0  0
   13.8802    2.3271   15.3571 H   0  0  0  0  0  0  0  0  0  0  0  0
   15.0225    2.8471   16.5939 H   0  0  0  0  0  0  0  0  0  0  0  0
   15.8340    0.6452   16.9866 H   0  0  0  0  0  0  0  0  0  0  0  0
   15.9648    0.9442   15.2512 H   0  0  0  0  0  0  0  0  0  0  0  0
   14.4185   -0.6829   13.6959 H   0  0  0  0  0  0  0  0  0  0  0  0
   13.3691    0.5615   14.3191 H   0  0  0  0  0  0  0  0  0  0  0  0
    9.9468    0.1089   16.0513 H   0  0  0  0  0  0  0  0  0  0  0  0
   10.7012    0.7170   14.5531 H   0  0  0  0  0  0  0  0  0  0  0  0
   11.5923    0.8022   16.1031 H   0  0  0  0  0  0  0  0  0  0  0  0
   15.1702   -2.3399   14.9403 H   0  0  0  0  0  0  0  0  0  0  0  0
   17.3168   -0.8950   15.8808 H   0  0  0  0  0  0  0  0  0  0  0  0
   17.2465   -2.6354   15.6891 H   0  0  0  0  0  0  0  0  0  0  0  0
   16.7359   -1.0926   18.2725 H   0  0  0  0  0  0  0  0  0  0  0  0
   17.7828   -2.5136   18.0043 H   0  0  0  0  0  0  0  0  0  0  0  0
   15.5377   -3.3287   18.8393 H   0  0  0  0  0  0  0  0  0  0  0  0
  1  2  1  0
  2  3  1  0
  3  4  1  0
  4  5  1  0
  5  6  2  0
  6  7  1  0
  7  8  2  0
  8  9  1  0
  9 10  1  0
  3 11  1  0
 11 12  1  0
 12 13  1  0
 13 14  1  0
 14 15  1  0
 15 16  2  0
  9  5  1  0
 15 11  1  0
  1 17  1  0
  1 18  1  0
  1 19  1  0
  2 20  1  0
  2 21  1  0
  4 22  1  0
  4 23  1  0
 10 24  1  0
 10 25  1  0
 10 26  1  0
 11 27  1  0
 12 28  1  0
 12 29  1  0
 13 30  1  0
 13 31  1  0
 14 32  1  0
M  END
>  <Energy>  (551) 
37.053758123334134

>  <compound_id>  (551) 
63321

>  <target_id>  (551) 
1

>  <reference_id>  (551) 
93

>  <inspiration_ids>  (551) 
[93, 98]

>  <energy_score>  (551) 
-34.435849383845564

>  <distance_score>  (551) 
2.6936371050283405

>  <path>  (551) 
/opt/xchem-fragalysis-2/maxwin/BulkDock/SCRATCH/511020/C63321-P93/C63321-P93.minimised.mol

>  <scratch_subdir>  (551) 
/opt/xchem-fragalysis-2/maxwin/BulkDock/SCRATCH/511020/C63321-P93

>  <fragmenstein_runtime>  (551) 
1.2555866241455078

>  <fragmenstein_outcome>  (551) 
too moved

>  <fragmenstein_mode>  (551) 
expansion

>  <fragmenstein_error>  (551) 


$$$$
C63321-P98
     RDKit          3D

 32 33  0  0  0  0  0  0  0  0999 V2000
   14.3599    1.9971   16.2383 C   0  0  0  0  0  0  0  0  0  0  0  0
   15.2207    0.7387   16.0369 C   0  0  0  0  0  0  0  0  0  0  0  0
   14.4596   -0.4966   15.8138 N   0  0  0  0  0  0  0  0  0  0  0  0
   13.7252   -0.4658   14.5302 C   0  0  0  0  0  0  0  0  0  0  0  0
   12.5840   -1.3970   14.6246 C   0  0  0  0  0  0  0  0  0  0  0  0
   12.5452   -2.6731   14.3173 N   0  0  0  0  0  0  0  0  0  0  0  0
   11.3773   -3.1574   14.8485 N   0  0  0  0  0  0  0  0  0  0  0  0
   10.6811   -2.1868   15.4170 N   0  0  0  0  0  0  0  0  0  0  0  0
   11.3967   -1.0808   15.2017 N   0  0  0  0  0  0  0  0  0  0  0  0
   10.8374    0.2164   15.4472 C   0  0  0  0  0  0  0  0  0  0  0  0
   15.2371   -1.8080   15.8742 C   0  0  0  0  0  0  0  0  0  0  0  0
   16.7425   -1.8039   16.2239 C   0  0  0  0  0  0  0  0  0  0  0  0
   16.7985   -2.0232   17.7184 C   0  0  0  0  0  0  0  0  0  0  0  0
   15.6758   -2.8568   17.9735 N   0  0  0  0  0  0  0  0  0  0  0  0
   14.7123   -2.7705   16.9890 C   0  0  0  0  0  0  0  0  0  0  0  0
   13.6747   -3.4045   17.0650 O   0  0  0  0  0  0  0  0  0  0  0  0
   14.9971    2.8313   16.5507 H   0  0  0  0  0  0  0  0  0  0  0  0
   13.6129    1.8360   17.0222 H   0  0  0  0  0  0  0  0  0  0  0  0
   13.8485    2.3043   15.3226 H   0  0  0  0  0  0  0  0  0  0  0  0
   15.8065    0.6332   16.9560 H   0  0  0  0  0  0  0  0  0  0  0  0
   15.9272    0.9136   15.2166 H   0  0  0  0  0  0  0  0  0  0  0  0
   14.3777   -0.7215   13.6858 H   0  0  0  0  0  0  0  0  0  0  0  0
   13.3333    0.5295   14.3011 H   0  0  0  0  0  0  0  0  0  0  0  0
    9.8960    0.1170   15.9929 H   0  0  0  0  0  0  0  0  0  0  0  0
   10.6528    0.6996   14.4843 H   0  0  0  0  0  0  0  0  0  0  0  0
   11.5425    0.8050   16.0349 H   0  0  0  0  0  0  0  0  0  0  0  0
   15.1566   -2.3521   14.9245 H   0  0  0  0  0  0  0  0  0  0  0  0
   17.2862   -0.9138   15.8979 H   0  0  0  0  0  0  0  0  0  0  0  0
   17.2191   -2.6555   15.7180 H   0  0  0  0  0  0  0  0  0  0  0  0
   16.6740   -1.0947   18.2828 H   0  0  0  0  0  0  0  0  0  0  0  0
   17.7160   -2.5235   18.0385 H   0  0  0  0  0  0  0  0  0  0  0  0
   15.4742   -3.3561   18.8319 H   0  0  0  0  0  0  0  0  0  0  0  0
  1  2  1  0
  2  3  1  0
  3  4  1  0
  4  5  1  0
  5  6  2  0
  6  7  1  0
  7  8  2  0
  8  9  1  0
  9 10  1  0
  3 11  1  0
 11 12  1  0
 12 13  1  0
 13 14  1  0
 14 15  1  0
 15 16  2  0
  9  5  1  0
 15 11  1  0
  1 17  1  0
  1 18  1  0
  1 19  1  0
  2 20  1  0
  2 21  1  0
  4 22  1  0
  4 23  1  0
 10 24  1  0
 10 25  1  0
 10 26  1  0
 11 27  1  0
 12 28  1  0
 12 29  1  0
 13 30  1  0
 13 31  1  0
 14 32  1  0
M  END
>  <Energy>  (552) 
36.800714752152494

>  <compound_id>  (552) 
63321

>  <target_id>  (552) 
1

>  <reference_id>  (552) 
98

>  <inspiration_ids>  (552) 
[93, 98]

>  <energy_score>  (552) 
-34.688892755026345

>  <distance_score>  (552) 
2.7053671985941894

>  <path>  (552) 
/opt/xchem-fragalysis-2/maxwin/BulkDock/SCRATCH/511020/C63321-P98/C63321-P98.minimised.mol

>  <scratch_subdir>  (552) 
/opt/xchem-fragalysis-2/maxwin/BulkDock/SCRATCH/511020/C63321-P98

>  <fragmenstein_runtime>  (552) 
1.2561733722686768

>  <fragmenstein_outcome>  (552) 
too moved

>  <fragmenstein_mode>  (552) 
expansion

>  <fragmenstein_error>  (552) 


$$$$
C49465-P115
     RDKit          3D

 51 52  0  0  0  0  0  0  0  0999 V2000
   -2.4552  -20.7308   22.4733 C   0  0  0  0  0  0  0  0  0  0  0  0
   -2.9808  -20.5677   20.6342 N   0  0  0  0  0  0  0  0  0  0  0  0
   -4.4024  -20.6339   20.3437 C   0  0  0  0  0  0  0  0  0  0  0  0
   -5.0070  -19.7013   19.6606 N   0  0  0  0  0  0  0  0  0  0  0  0
   -4.0598  -18.9011   19.1629 C   0  0  0  0  0  0  0  0  0  0  0  0
   -2.7545  -19.1909   19.6030 C   0  0  0  0  0  0  0  0  0  0  0  0
   -1.4245  -18.2492   18.7128 C   0  0  0  0  0  0  0  0  0  0  0  0
    0.3320  -18.6851   17.8467 C   0  0  0  0  0  0  0  0  0  0  0  0
    1.8073  -18.4472   16.8990 C   0  0  0  0  0  0  0  0  0  0  0  0
    2.5224  -17.5357   17.2073 O   0  0  0  0  0  0  0  0  0  0  0  0
    1.9823  -19.4869   15.9138 N   0  0  0  0  0  0  0  0  0  0  0  0
    3.0380  -19.7002   14.9191 C   0  0  0  0  0  0  0  0  0  0  0  0
    2.5818  -19.8388   13.4466 C   0  0  0  0  0  0  0  0  0  0  0  0
    3.5376  -19.2087   12.4092 C   0  0  0  0  0  0  0  0  0  0  0  0
    3.2800  -19.7454   10.9943 C   0  0  0  0  0  0  0  0  0  0  0  0
    2.3458  -18.9019   10.1240 C   0  0  0  0  0  0  0  0  0  0  0  0
    2.8504  -17.5827    9.7079 N   0  0  0  0  0  0  0  0  0  0  0  0
    1.9365  -17.0210    8.6866 C   0  0  0  0  0  0  0  0  0  0  0  0
    2.0933  -17.6255    7.2672 C   0  0  0  0  0  0  0  0  0  0  0  0
    3.4910  -17.6357    6.7848 N   0  0  0  0  0  0  0  0  0  0  0  0
    4.3487  -18.2704    7.7944 C   0  0  0  0  0  0  0  0  0  0  0  0
    4.2163  -17.5957    9.1710 C   0  0  0  0  0  0  0  0  0  0  0  0
   -1.7686  -21.5455   22.7493 H   0  0  0  0  0  0  0  0  0  0  0  0
   -3.2144  -20.7386   23.2164 H   0  0  0  0  0  0  0  0  0  0  0  0
   -1.8022  -19.8928   22.7218 H   0  0  0  0  0  0  0  0  0  0  0  0
   -4.9725  -21.3312   20.9089 H   0  0  0  0  0  0  0  0  0  0  0  0
   -4.3252  -18.1062   18.4768 H   0  0  0  0  0  0  0  0  0  0  0  0
   -1.3671  -17.4018   19.4181 H   0  0  0  0  0  0  0  0  0  0  0  0
   -2.1244  -18.1382   17.9514 H   0  0  0  0  0  0  0  0  0  0  0  0
    1.0222  -19.4533   18.2364 H   0  0  0  0  0  0  0  0  0  0  0  0
    0.6844  -17.8647   18.4355 H   0  0  0  0  0  0  0  0  0  0  0  0
    1.1347  -20.0420   15.8649 H   0  0  0  0  0  0  0  0  0  0  0  0
    3.7624  -18.8855   15.0305 H   0  0  0  0  0  0  0  0  0  0  0  0
    3.5522  -20.6196   15.2212 H   0  0  0  0  0  0  0  0  0  0  0  0
    2.5491  -20.9177   13.2639 H   0  0  0  0  0  0  0  0  0  0  0  0
    1.5644  -19.4659   13.2918 H   0  0  0  0  0  0  0  0  0  0  0  0
    4.5619  -19.4861   12.6893 H   0  0  0  0  0  0  0  0  0  0  0  0
    3.4914  -18.1167   12.4411 H   0  0  0  0  0  0  0  0  0  0  0  0
    4.2398  -19.8958   10.4883 H   0  0  0  0  0  0  0  0  0  0  0  0
    2.8576  -20.7562   11.0585 H   0  0  0  0  0  0  0  0  0  0  0  0
    1.4089  -18.7563   10.6757 H   0  0  0  0  0  0  0  0  0  0  0  0
    2.0971  -19.5165    9.2505 H   0  0  0  0  0  0  0  0  0  0  0  0
    2.1377  -15.9461    8.6266 H   0  0  0  0  0  0  0  0  0  0  0  0
    0.8937  -17.1078    9.0141 H   0  0  0  0  0  0  0  0  0  0  0  0
    1.4900  -17.0405    6.5634 H   0  0  0  0  0  0  0  0  0  0  0  0
    1.6966  -18.6467    7.2371 H   0  0  0  0  0  0  0  0  0  0  0  0
    3.7814  -16.6643    6.6809 H   0  0  0  0  0  0  0  0  0  0  0  0
    4.1201  -19.3406    7.8582 H   0  0  0  0  0  0  0  0  0  0  0  0
    5.3888  -18.1939    7.4577 H   0  0  0  0  0  0  0  0  0  0  0  0
    4.9298  -18.0306    9.8773 H   0  0  0  0  0  0  0  0  0  0  0  0
    4.5422  -16.5531    9.0829 H   0  0  0  0  0  0  0  0  0  0  0  0
  1  2  1  0
  2  3  1  0
  3  4  2  0
  4  5  1  0
  5  6  2  0
  6  7  1  0
  7  8  1  0
  8  9  1  0
  9 10  2  0
  9 11  1  0
 11 12  1  0
 12 13  1  0
 13 14  1  0
 14 15  1  0
 15 16  1  0
 16 17  1  0
 17 18  1  0
 18 19  1  0
 19 20  1  0
 20 21  1  0
 21 22  1  0
  6  2  1  0
 22 17  1  0
  1 23  1  0
  1 24  1  0
  1 25  1  0
  3 26  1  0
  5 27  1  0
  7 28  1  0
  7 29  1  0
  8 30  1  0
  8 31  1  0
 11 32  1  0
 12 33  1  0
 12 34  1  0
 13 35  1  0
 13 36  1  0
 14 37  1  0
 14 38  1  0
 15 39  1  0
 15 40  1  0
 16 41  1  0
 16 42  1  0
 18 43  1  0
 18 44  1  0
 19 45  1  0
 19 46  1  0
 20 47  1  0
 21 48  1  0
 21 49  1  0
 22 50  1  0
 22 51  1  0
M  END
>  <Energy>  (553) 
420.08746281566624

>  <compound_id>  (553) 
49465

>  <target_id>  (553) 
1

>  <reference_id>  (553) 
115

>  <inspiration_ids>  (553) 
[115, 85]

>  <energy_score>  (553) 
329.2028841495761

>  <distance_score>  (553) 
9.947977920076482

>  <path>  (553) 
/opt/xchem-fragalysis-2/maxwin/BulkDock/SCRATCH/511020/C49465-P115/C49465-P115.minimised.mol

>  <scratch_subdir>  (553) 
/opt/xchem-fragalysis-2/maxwin/BulkDock/SCRATCH/511020/C49465-P115

>  <fragmenstein_runtime>  (553) 
44.42256307601929

>  <fragmenstein_outcome>  (553) 
too moved

>  <fragmenstein_mode>  (553) 
expansion

>  <fragmenstein_error>  (553) 


$$$$
C49465-P85
     RDKit          3D

 51 52  0  0  0  0  0  0  0  0999 V2000
   -7.1842  -19.4204   21.5981 C   0  0  0  0  0  0  0  0  0  0  0  0
   -7.3498  -18.0685   21.7029 N   0  0  0  0  0  0  0  0  0  0  0  0
   -8.2682  -17.6651   22.6413 C   0  0  0  0  0  0  0  0  0  0  0  0
   -8.8743  -16.6013   22.2395 N   0  0  0  0  0  0  0  0  0  0  0  0
   -8.2574  -16.3697   21.0053 C   0  0  0  0  0  0  0  0  0  0  0  0
   -7.1490  -17.2766   20.5766 C   0  0  0  0  0  0  0  0  0  0  0  0
   -6.0268  -17.8152   19.1622 C   0  0  0  0  0  0  0  0  0  0  0  0
   -4.6856  -16.9655   18.0337 C   0  0  0  0  0  0  0  0  0  0  0  0
   -3.8995  -16.0866   16.5032 C   0  0  0  0  0  0  0  0  0  0  0  0
   -3.9735  -16.8039   15.5393 O   0  0  0  0  0  0  0  0  0  0  0  0
   -3.1994  -14.4636   16.4996 N   0  0  0  0  0  0  0  0  0  0  0  0
   -2.5751  -13.4669   15.1631 C   0  0  0  0  0  0  0  0  0  0  0  0
   -1.0274  -13.2185   14.3519 C   0  0  0  0  0  0  0  0  0  0  0  0
   -0.2717  -13.5155   12.7012 C   0  0  0  0  0  0  0  0  0  0  0  0
   -0.2631  -14.8363   11.6308 C   0  0  0  0  0  0  0  0  0  0  0  0
    0.6419  -16.1752   10.8441 C   0  0  0  0  0  0  0  0  0  0  0  0
    1.3362  -16.4194    9.4926 N   0  0  0  0  0  0  0  0  0  0  0  0
    2.8002  -16.2866    9.5092 C   0  0  0  0  0  0  0  0  0  0  0  0
    3.6132  -16.8946    8.3467 C   0  0  0  0  0  0  0  0  0  0  0  0
    3.2981  -18.3049    8.1282 N   0  0  0  0  0  0  0  0  0  0  0  0
    1.8596  -18.3333    7.8046 C   0  0  0  0  0  0  0  0  0  0  0  0
    1.0035  -17.7672    8.9610 C   0  0  0  0  0  0  0  0  0  0  0  0
   -7.1597  -19.8083   22.6130 H   0  0  0  0  0  0  0  0  0  0  0  0
   -8.0718  -19.8153   21.0898 H   0  0  0  0  0  0  0  0  0  0  0  0
   -6.2794  -19.5951   21.0188 H   0  0  0  0  0  0  0  0  0  0  0  0
   -8.4706  -18.2125   23.5418 H   0  0  0  0  0  0  0  0  0  0  0  0
   -8.8257  -15.6067   20.4816 H   0  0  0  0  0  0  0  0  0  0  0  0
   -5.3875  -18.5286   19.6867 H   0  0  0  0  0  0  0  0  0  0  0  0
   -6.6788  -18.3930   18.5109 H   0  0  0  0  0  0  0  0  0  0  0  0
   -4.3888  -17.9426   17.6196 H   0  0  0  0  0  0  0  0  0  0  0  0
   -5.4428  -16.4240   17.4888 H   0  0  0  0  0  0  0  0  0  0  0  0
   -3.1810  -14.1124   17.4294 H   0  0  0  0  0  0  0  0  0  0  0  0
   -3.2480  -13.4973   14.3153 H   0  0  0  0  0  0  0  0  0  0  0  0
   -2.7401  -12.4907   15.6406 H   0  0  0  0  0  0  0  0  0  0  0  0
   -1.0569  -12.1173   14.2732 H   0  0  0  0  0  0  0  0  0  0  0  0
   -0.2594  -13.3592   15.1232 H   0  0  0  0  0  0  0  0  0  0  0  0
   -0.5187  -12.6195   12.1271 H   0  0  0  0  0  0  0  0  0  0  0  0
    0.7746  -13.3649   12.9203 H   0  0  0  0  0  0  0  0  0  0  0  0
   -1.2762  -14.9204   11.2344 H   0  0  0  0  0  0  0  0  0  0  0  0
   -0.1355  -15.4067   12.4793 H   0  0  0  0  0  0  0  0  0  0  0  0
   -0.1918  -16.8715   10.7897 H   0  0  0  0  0  0  0  0  0  0  0  0
    1.2729  -16.6544   11.5596 H   0  0  0  0  0  0  0  0  0  0  0  0
    3.0216  -15.2228    9.4532 H   0  0  0  0  0  0  0  0  0  0  0  0
    3.2034  -16.7403   10.4211 H   0  0  0  0  0  0  0  0  0  0  0  0
    4.6819  -16.8030    8.5724 H   0  0  0  0  0  0  0  0  0  0  0  0
    3.4412  -16.3170    7.4301 H   0  0  0  0  0  0  0  0  0  0  0  0
    3.4093  -18.8069    9.0093 H   0  0  0  0  0  0  0  0  0  0  0  0
    1.5638  -19.3708    7.6120 H   0  0  0  0  0  0  0  0  0  0  0  0
    1.6629  -17.7735    6.8821 H   0  0  0  0  0  0  0  0  0  0  0  0
   -0.0145  -17.7164    8.5694 H   0  0  0  0  0  0  0  0  0  0  0  0
    1.0803  -18.4945    9.7786 H   0  0  0  0  0  0  0  0  0  0  0  0
  1  2  1  0
  2  3  1  0
  3  4  2  0
  4  5  1  0
  5  6  2  0
  6  7  1  0
  7  8  1  0
  8  9  1  0
  9 10  2  0
  9 11  1  0
 11 12  1  0
 12 13  1  0
 13 14  1  0
 14 15  1  0
 15 16  1  0
 16 17  1  0
 17 18  1  0
 18 19  1  0
 19 20  1  0
 20 21  1  0
 21 22  1  0
  6  2  1  0
 22 17  1  0
  1 23  1  0
  1 24  1  0
  1 25  1  0
  3 26  1  0
  5 27  1  0
  7 28  1  0
  7 29  1  0
  8 30  1  0
  8 31  1  0
 11 32  1  0
 12 33  1  0
 12 34  1  0
 13 35  1  0
 13 36  1  0
 14 37  1  0
 14 38  1  0
 15 39  1  0
 15 40  1  0
 16 41  1  0
 16 42  1  0
 18 43  1  0
 18 44  1  0
 19 45  1  0
 19 46  1  0
 20 47  1  0
 21 48  1  0
 21 49  1  0
 22 50  1  0
 22 51  1  0
M  END
>  <Energy>  (554) 
566.12960234103195

>  <compound_id>  (554) 
49465

>  <target_id>  (554) 
1

>  <reference_id>  (554) 
85

>  <inspiration_ids>  (554) 
[115, 85]

>  <energy_score>  (554) 
475.24502367494057

>  <distance_score>  (554) 
8.974381663711721

>  <path>  (554) 
/opt/xchem-fragalysis-2/maxwin/BulkDock/SCRATCH/511020/C49465-P85/C49465-P85.minimised.mol

>  <scratch_subdir>  (554) 
/opt/xchem-fragalysis-2/maxwin/BulkDock/SCRATCH/511020/C49465-P85

>  <fragmenstein_runtime>  (554) 
32.43385052680969

>  <fragmenstein_outcome>  (554) 
too moved

>  <fragmenstein_mode>  (554) 
expansion

>  <fragmenstein_error>  (554) 


$$$$
C13792-P96
     RDKit          3D

 46 47  0  0  0  0  0  0  0  0999 V2000
   -6.3324  -21.1476   27.3571 C   0  0  0  0  0  0  0  0  0  0  0  0
   -7.5889  -20.0599   27.5324 C   0  0  0  0  0  0  0  0  0  0  0  0
   -9.4724  -20.0784   28.1693 C   0  0  0  0  0  0  0  0  0  0  0  0
   -6.5500  -18.1594   27.3301 C   0  0  0  0  0  0  0  0  0  0  0  0
   -5.7953  -18.2061   26.3935 O   0  0  0  0  0  0  0  0  0  0  0  0
   -6.5468  -16.6545   28.4073 N   0  0  0  0  0  0  0  0  0  0  0  0
   -5.4423  -15.0831   28.4347 C   0  0  0  0  0  0  0  0  0  0  0  0
   -4.0658  -14.4949   27.9661 C   0  0  0  0  0  0  0  0  0  0  0  0
   -3.5630  -13.2918   28.5693 C   0  0  0  0  0  0  0  0  0  0  0  0
   -5.0036  -12.2734   28.7847 N   0  0  0  0  0  0  0  0  0  0  0  0
   -5.1314  -10.8001   28.3635 C   0  0  0  0  0  0  0  0  0  0  0  0
   -3.8813  -10.2673   27.7047 C   0  0  0  0  0  0  0  0  0  0  0  0
   -6.2825  -10.6884   27.4565 C   0  0  0  0  0  0  0  0  0  0  0  0
   -5.2951   -9.6782   29.2757 C   0  0  0  0  0  0  0  0  0  0  0  0
   -4.4672   -8.7541   29.4860 O   0  0  0  0  0  0  0  0  0  0  0  0
   -6.4126   -9.4627   29.9153 O   0  0  0  0  0  0  0  0  0  0  0  0
   -5.9370  -13.6221   28.9667 N   0  0  0  0  0  0  0  0  0  0  0  0
   -8.5209  -21.7733   28.2674 C   0  0  0  0  0  0  0  0  0  0  0  0
   -9.3314  -22.8989   27.3369 C   0  0  0  0  0  0  0  0  0  0  0  0
   -9.6826  -24.1694   28.1325 C   0  0  0  0  0  0  0  0  0  0  0  0
   -9.9432  -23.7291   29.4762 N   0  0  0  0  0  0  0  0  0  0  0  0
   -9.9835  -22.2767   29.3310 C   0  0  0  0  0  0  0  0  0  0  0  0
   -5.9903  -21.7723   28.1273 H   0  0  0  0  0  0  0  0  0  0  0  0
   -5.3543  -20.6516   27.1915 H   0  0  0  0  0  0  0  0  0  0  0  0
   -6.5123  -21.7784   26.4868 H   0  0  0  0  0  0  0  0  0  0  0  0
   -9.7304  -20.4439   29.1416 H   0  0  0  0  0  0  0  0  0  0  0  0
  -10.2929  -20.4115   27.5073 H   0  0  0  0  0  0  0  0  0  0  0  0
   -9.6731  -19.2502   28.8593 H   0  0  0  0  0  0  0  0  0  0  0  0
   -7.2835  -16.7434   29.0789 H   0  0  0  0  0  0  0  0  0  0  0  0
   -3.5844  -14.8590   27.0437 H   0  0  0  0  0  0  0  0  0  0  0  0
   -2.7369  -12.7398   28.1424 H   0  0  0  0  0  0  0  0  0  0  0  0
   -3.3112   -9.4072   28.0519 H   0  0  0  0  0  0  0  0  0  0  0  0
   -3.1993  -11.0335   27.8900 H   0  0  0  0  0  0  0  0  0  0  0  0
   -3.9926  -10.1192   26.6505 H   0  0  0  0  0  0  0  0  0  0  0  0
   -7.0089  -11.2774   26.7720 H   0  0  0  0  0  0  0  0  0  0  0  0
   -6.6990  -11.6482   27.9076 H   0  0  0  0  0  0  0  0  0  0  0  0
   -5.8120  -10.4533   26.4835 H   0  0  0  0  0  0  0  0  0  0  0  0
   -6.1175   -8.6810   30.4306 H   0  0  0  0  0  0  0  0  0  0  0  0
   -7.8508  -22.3609   28.8135 H   0  0  0  0  0  0  0  0  0  0  0  0
  -10.2947  -22.5032   26.9776 H   0  0  0  0  0  0  0  0  0  0  0  0
   -8.8189  -23.1811   26.4629 H   0  0  0  0  0  0  0  0  0  0  0  0
  -10.5609  -24.6589   27.6979 H   0  0  0  0  0  0  0  0  0  0  0  0
   -8.8793  -24.9073   28.1600 H   0  0  0  0  0  0  0  0  0  0  0  0
   -9.1551  -23.9741   30.0763 H   0  0  0  0  0  0  0  0  0  0  0  0
  -10.0903  -21.9005   30.3576 H   0  0  0  0  0  0  0  0  0  0  0  0
  -10.9399  -22.0060   28.8471 H   0  0  0  0  0  0  0  0  0  0  0  0
  1  2  1  0
  2  3  1  0
  2  4  1  0
  4  5  2  0
  4  6  1  0
  6  7  1  0
  7  8  1  0
  8  9  2  0
  9 10  1  0
 10 11  1  0
 11 12  1  0
 11 13  1  0
 11 14  1  0
 14 15  2  0
 14 16  1  0
 10 17  1  0
  2 18  1  0
 18 19  1  0
 19 20  1  0
 20 21  1  0
 21 22  1  0
 17  7  2  0
 22 18  1  0
  1 23  1  0
  1 24  1  0
  1 25  1  0
  3 26  1  0
  3 27  1  0
  3 28  1  0
  6 29  1  0
  8 30  1  0
  9 31  1  0
 12 32  1  0
 12 33  1  0
 12 34  1  0
 13 35  1  0
 13 36  1  0
 13 37  1  0
 16 38  1  0
 18 39  1  0
 19 40  1  0
 19 41  1  0
 20 42  1  0
 20 43  1  0
 21 44  1  0
 22 45  1  0
 22 46  1  0
M  END
>  <Energy>  (555) 
972.29762955998126

>  <compound_id>  (555) 
13792

>  <target_id>  (555) 
1

>  <reference_id>  (555) 
96

>  <inspiration_ids>  (555) 
[96, 70]

>  <energy_score>  (555) 
924.624346532831

>  <distance_score>  (555) 
10.716841636866905

>  <path>  (555) 
/opt/xchem-fragalysis-2/maxwin/BulkDock/SCRATCH/511020/C13792-P96/C13792-P96.minimised.mol

>  <scratch_subdir>  (555) 
/opt/xchem-fragalysis-2/maxwin/BulkDock/SCRATCH/511020/C13792-P96

>  <fragmenstein_runtime>  (555) 
18.72321605682373

>  <fragmenstein_outcome>  (555) 
too moved

>  <fragmenstein_mode>  (555) 
expansion

>  <fragmenstein_error>  (555) 


$$$$
C13792-P70
     RDKit          3D

 46 47  0  0  0  0  0  0  0  0999 V2000
   -6.8011  -12.8348   23.7184 C   0  0  0  0  0  0  0  0  0  0  0  0
   -7.3468  -12.4807   25.2293 C   0  0  0  0  0  0  0  0  0  0  0  0
   -7.9802  -11.3256   24.6661 C   0  0  0  0  0  0  0  0  0  0  0  0
   -6.0898  -11.5569   26.3266 C   0  0  0  0  0  0  0  0  0  0  0  0
   -5.0992  -12.1999   26.6608 O   0  0  0  0  0  0  0  0  0  0  0  0
   -6.2370   -9.6544   26.7610 N   0  0  0  0  0  0  0  0  0  0  0  0
   -4.9702   -8.3980   27.5418 C   0  0  0  0  0  0  0  0  0  0  0  0
   -3.3724   -7.6053   26.8205 C   0  0  0  0  0  0  0  0  0  0  0  0
   -2.2443   -7.0305   27.4057 C   0  0  0  0  0  0  0  0  0  0  0  0
   -2.5898   -7.3777   28.6557 N   0  0  0  0  0  0  0  0  0  0  0  0
   -1.3581   -7.3622   29.6840 C   0  0  0  0  0  0  0  0  0  0  0  0
   -0.5065   -5.9994   29.6344 C   0  0  0  0  0  0  0  0  0  0  0  0
   -0.2769   -8.4107   29.2083 C   0  0  0  0  0  0  0  0  0  0  0  0
   -1.6791   -7.7406   31.1228 C   0  0  0  0  0  0  0  0  0  0  0  0
   -2.2033   -8.7843   31.4781 O   0  0  0  0  0  0  0  0  0  0  0  0
   -1.2526   -6.8728   32.0600 O   0  0  0  0  0  0  0  0  0  0  0  0
   -4.3140   -7.8502   28.7092 N   0  0  0  0  0  0  0  0  0  0  0  0
   -8.6526  -13.3304   25.4745 C   0  0  0  0  0  0  0  0  0  0  0  0
   -8.6564  -14.4700   26.4348 C   0  0  0  0  0  0  0  0  0  0  0  0
   -9.1365  -15.6225   25.5876 C   0  0  0  0  0  0  0  0  0  0  0  0
  -10.1622  -15.0413   24.7344 N   0  0  0  0  0  0  0  0  0  0  0  0
   -9.4837  -13.8470   24.2480 C   0  0  0  0  0  0  0  0  0  0  0  0
   -6.9438  -13.8820   23.4468 H   0  0  0  0  0  0  0  0  0  0  0  0
   -5.7755  -12.4940   23.5505 H   0  0  0  0  0  0  0  0  0  0  0  0
   -7.3512  -12.3639   22.8829 H   0  0  0  0  0  0  0  0  0  0  0  0
   -8.8294  -11.4543   23.9807 H   0  0  0  0  0  0  0  0  0  0  0  0
   -8.2930  -10.9043   25.5773 H   0  0  0  0  0  0  0  0  0  0  0  0
   -7.2250  -10.7213   24.1924 H   0  0  0  0  0  0  0  0  0  0  0  0
   -7.1590   -9.3198   26.4837 H   0  0  0  0  0  0  0  0  0  0  0  0
   -2.8910   -7.9518   25.9239 H   0  0  0  0  0  0  0  0  0  0  0  0
   -1.2784   -6.7287   27.0199 H   0  0  0  0  0  0  0  0  0  0  0  0
   -0.9055   -5.2030   30.2734 H   0  0  0  0  0  0  0  0  0  0  0  0
    0.5045   -6.1702   30.0273 H   0  0  0  0  0  0  0  0  0  0  0  0
   -0.3896   -5.6018   28.6232 H   0  0  0  0  0  0  0  0  0  0  0  0
    0.0631   -8.2184   28.1852 H   0  0  0  0  0  0  0  0  0  0  0  0
   -0.6077   -9.4513   29.2543 H   0  0  0  0  0  0  0  0  0  0  0  0
    0.6103   -8.3637   29.8525 H   0  0  0  0  0  0  0  0  0  0  0  0
   -1.4683   -7.3176   32.9096 H   0  0  0  0  0  0  0  0  0  0  0  0
   -9.3965  -12.6581   25.8747 H   0  0  0  0  0  0  0  0  0  0  0  0
   -9.4241  -14.2126   27.1630 H   0  0  0  0  0  0  0  0  0  0  0  0
   -7.7336  -14.6024   26.9935 H   0  0  0  0  0  0  0  0  0  0  0  0
   -8.3362  -15.9157   24.9164 H   0  0  0  0  0  0  0  0  0  0  0  0
   -9.5035  -16.4824   26.1375 H   0  0  0  0  0  0  0  0  0  0  0  0
  -10.3551  -15.6578   23.9498 H   0  0  0  0  0  0  0  0  0  0  0  0
  -10.2294  -13.1147   23.9200 H   0  0  0  0  0  0  0  0  0  0  0  0
   -8.8930  -14.1226   23.3745 H   0  0  0  0  0  0  0  0  0  0  0  0
  1  2  1  0
  2  3  1  0
  2  4  1  0
  4  5  2  0
  4  6  1  0
  6  7  1  0
  7  8  1  0
  8  9  2  0
  9 10  1  0
 10 11  1  0
 11 12  1  0
 11 13  1  0
 11 14  1  0
 14 15  2  0
 14 16  1  0
 10 17  1  0
  2 18  1  0
 18 19  1  0
 19 20  1  0
 20 21  1  0
 21 22  1  0
 17  7  2  0
 22 18  1  0
  1 23  1  0
  1 24  1  0
  1 25  1  0
  3 26  1  0
  3 27  1  0
  3 28  1  0
  6 29  1  0
  8 30  1  0
  9 31  1  0
 12 32  1  0
 12 33  1  0
 12 34  1  0
 13 35  1  0
 13 36  1  0
 13 37  1  0
 16 38  1  0
 18 39  1  0
 19 40  1  0
 19 41  1  0
 20 42  1  0
 20 43  1  0
 21 44  1  0
 22 45  1  0
 22 46  1  0
M  END
>  <Energy>  (556) 
572.62129428193271

>  <compound_id>  (556) 
13792

>  <target_id>  (556) 
1

>  <reference_id>  (556) 
70

>  <inspiration_ids>  (556) 
[96, 70]

>  <energy_score>  (556) 
524.9480112547845

>  <distance_score>  (556) 
9.998244992667885

>  <path>  (556) 
/opt/xchem-fragalysis-2/maxwin/BulkDock/SCRATCH/511020/C13792-P70/C13792-P70.minimised.mol

>  <scratch_subdir>  (556) 
/opt/xchem-fragalysis-2/maxwin/BulkDock/SCRATCH/511020/C13792-P70

>  <fragmenstein_runtime>  (556) 
32.79537558555603

>  <fragmenstein_outcome>  (556) 
too moved

>  <fragmenstein_mode>  (556) 
expansion

>  <fragmenstein_error>  (556) 


$$$$
C49529-P96
     RDKit          3D

 49 50  0  0  0  0  0  0  0  0999 V2000
  -10.5078  -20.4515   27.1975 C   0  0  0  0  0  0  0  0  0  0  0  0
   -8.9501  -19.3166   27.6876 C   0  0  0  0  0  0  0  0  0  0  0  0
   -7.4826  -20.6465   27.6786 C   0  0  0  0  0  0  0  0  0  0  0  0
   -7.8299  -17.4303   27.1486 C   0  0  0  0  0  0  0  0  0  0  0  0
   -7.0281  -17.6706   26.2315 O   0  0  0  0  0  0  0  0  0  0  0  0
   -8.1741  -16.2709   27.7025 N   0  0  0  0  0  0  0  0  0  0  0  0
   -7.7723  -14.5800   27.2868 C   0  0  0  0  0  0  0  0  0  0  0  0
   -8.6226  -13.8096   26.4041 C   0  0  0  0  0  0  0  0  0  0  0  0
   -8.1249  -12.5235   26.3354 C   0  0  0  0  0  0  0  0  0  0  0  0
   -7.1515  -12.1835   27.4021 N   0  0  0  0  0  0  0  0  0  0  0  0
   -6.0244  -10.6528   27.5818 C   0  0  0  0  0  0  0  0  0  0  0  0
   -5.9282  -10.5043   25.6888 C   0  0  0  0  0  0  0  0  0  0  0  0
   -4.4083  -10.6013   27.7300 C   0  0  0  0  0  0  0  0  0  0  0  0
   -5.8519   -9.8485   29.1377 C   0  0  0  0  0  0  0  0  0  0  0  0
   -6.6617   -9.8043   30.0513 O   0  0  0  0  0  0  0  0  0  0  0  0
   -4.8159   -9.0968   29.4233 O   0  0  0  0  0  0  0  0  0  0  0  0
   -6.7785  -13.4586   27.7302 N   0  0  0  0  0  0  0  0  0  0  0  0
   -9.9408  -20.0418   29.3285 C   0  0  0  0  0  0  0  0  0  0  0  0
  -10.3423  -21.7796   29.3196 C   0  0  0  0  0  0  0  0  0  0  0  0
  -10.3841  -22.6428   30.5923 C   0  0  0  0  0  0  0  0  0  0  0  0
  -11.0065  -21.9261   31.7511 C   0  0  0  0  0  0  0  0  0  0  0  0
  -10.1940  -20.7604   32.0159 N   0  0  0  0  0  0  0  0  0  0  0  0
  -10.2593  -19.7417   30.9370 C   0  0  0  0  0  0  0  0  0  0  0  0
  -11.3970  -20.3526   27.8132 H   0  0  0  0  0  0  0  0  0  0  0  0
  -11.0168  -20.2637   26.2523 H   0  0  0  0  0  0  0  0  0  0  0  0
  -10.3608  -21.5427   27.1903 H   0  0  0  0  0  0  0  0  0  0  0  0
   -7.2564  -21.3461   26.8677 H   0  0  0  0  0  0  0  0  0  0  0  0
   -7.7982  -21.3954   28.3873 H   0  0  0  0  0  0  0  0  0  0  0  0
   -6.5081  -20.2135   27.7409 H   0  0  0  0  0  0  0  0  0  0  0  0
   -8.7540  -16.4624   28.4621 H   0  0  0  0  0  0  0  0  0  0  0  0
   -9.4056  -14.2143   25.7791 H   0  0  0  0  0  0  0  0  0  0  0  0
   -8.4274  -11.8293   25.5716 H   0  0  0  0  0  0  0  0  0  0  0  0
   -6.4330   -9.8495   24.9323 H   0  0  0  0  0  0  0  0  0  0  0  0
   -4.9190  -10.6895   25.2871 H   0  0  0  0  0  0  0  0  0  0  0  0
   -6.7597  -11.1514   25.4765 H   0  0  0  0  0  0  0  0  0  0  0  0
   -4.0347  -11.4628   28.2253 H   0  0  0  0  0  0  0  0  0  0  0  0
   -3.7791   -9.8019   28.1056 H   0  0  0  0  0  0  0  0  0  0  0  0
   -4.0113  -10.3420   26.7780 H   0  0  0  0  0  0  0  0  0  0  0  0
   -5.2757   -8.5586   30.1145 H   0  0  0  0  0  0  0  0  0  0  0  0
  -10.9143  -19.5687   29.1820 H   0  0  0  0  0  0  0  0  0  0  0  0
   -9.6371  -22.3125   28.6734 H   0  0  0  0  0  0  0  0  0  0  0  0
  -11.3659  -21.8840   28.9359 H   0  0  0  0  0  0  0  0  0  0  0  0
  -10.9561  -23.5550   30.3783 H   0  0  0  0  0  0  0  0  0  0  0  0
   -9.3779  -22.9955   30.8550 H   0  0  0  0  0  0  0  0  0  0  0  0
  -12.0512  -21.6601   31.5521 H   0  0  0  0  0  0  0  0  0  0  0  0
  -11.0018  -22.5793   32.6306 H   0  0  0  0  0  0  0  0  0  0  0  0
  -10.5405  -20.3289   32.8747 H   0  0  0  0  0  0  0  0  0  0  0  0
   -9.7706  -18.8831   31.3588 H   0  0  0  0  0  0  0  0  0  0  0  0
  -11.3260  -19.5489   30.9701 H   0  0  0  0  0  0  0  0  0  0  0  0
  1  2  1  0
  2  3  1  0
  2  4  1  0
  4  5  2  0
  4  6  1  0
  6  7  1  0
  7  8  1  0
  8  9  2  0
  9 10  1  0
 10 11  1  0
 11 12  1  0
 11 13  1  0
 11 14  1  0
 14 15  2  0
 14 16  1  0
 10 17  1  0
  2 18  1  0
 18 19  1  0
 19 20  1  0
 20 21  1  0
 21 22  1  0
 22 23  1  0
 17  7  2  0
 23 18  1  0
  1 24  1  0
  1 25  1  0
  1 26  1  0
  3 27  1  0
  3 28  1  0
  3 29  1  0
  6 30  1  0
  8 31  1  0
  9 32  1  0
 12 33  1  0
 12 34  1  0
 12 35  1  0
 13 36  1  0
 13 37  1  0
 13 38  1  0
 16 39  1  0
 18 40  1  0
 19 41  1  0
 19 42  1  0
 20 43  1  0
 20 44  1  0
 21 45  1  0
 21 46  1  0
 22 47  1  0
 23 48  1  0
 23 49  1  0
M  END
>  <Energy>  (557) 
851.62568430480451

>  <compound_id>  (557) 
49529

>  <target_id>  (557) 
1

>  <reference_id>  (557) 
96

>  <inspiration_ids>  (557) 
[96, 70]

>  <energy_score>  (557) 
792.3763436249939

>  <distance_score>  (557) 
10.598441090887897

>  <path>  (557) 
/opt/xchem-fragalysis-2/maxwin/BulkDock/SCRATCH/511020/C49529-P96/C49529-P96.minimised.mol

>  <scratch_subdir>  (557) 
/opt/xchem-fragalysis-2/maxwin/BulkDock/SCRATCH/511020/C49529-P96

>  <fragmenstein_runtime>  (557) 
65.34958600997925

>  <fragmenstein_outcome>  (557) 
too moved

>  <fragmenstein_mode>  (557) 
expansion

>  <fragmenstein_error>  (557) 


$$$$
C49529-P70
     RDKit          3D

 49 50  0  0  0  0  0  0  0  0999 V2000
   -7.0628  -15.1451   27.9361 C   0  0  0  0  0  0  0  0  0  0  0  0
   -5.8742  -15.4307   29.6422 C   0  0  0  0  0  0  0  0  0  0  0  0
   -5.2499  -16.5958   28.9631 C   0  0  0  0  0  0  0  0  0  0  0  0
   -5.9253  -13.6500   29.4810 C   0  0  0  0  0  0  0  0  0  0  0  0
   -6.5302  -13.3608   28.5101 O   0  0  0  0  0  0  0  0  0  0  0  0
   -5.3999  -12.7360   30.5275 N   0  0  0  0  0  0  0  0  0  0  0  0
   -5.5494  -11.4096   30.7237 C   0  0  0  0  0  0  0  0  0  0  0  0
   -6.3137  -10.2872   30.0727 C   0  0  0  0  0  0  0  0  0  0  0  0
   -5.5357   -9.1190   30.6334 C   0  0  0  0  0  0  0  0  0  0  0  0
   -4.5331   -9.4844   31.6816 N   0  0  0  0  0  0  0  0  0  0  0  0
   -3.0869   -9.1063   32.1634 C   0  0  0  0  0  0  0  0  0  0  0  0
   -1.9770  -10.1068   31.7430 C   0  0  0  0  0  0  0  0  0  0  0  0
   -3.1276   -9.0768   33.7345 C   0  0  0  0  0  0  0  0  0  0  0  0
   -2.2493   -7.9480   31.5556 C   0  0  0  0  0  0  0  0  0  0  0  0
   -2.1696   -7.6095   30.3838 O   0  0  0  0  0  0  0  0  0  0  0  0
   -1.4397   -7.2995   32.4296 O   0  0  0  0  0  0  0  0  0  0  0  0
   -4.9700  -10.7840   31.8690 N   0  0  0  0  0  0  0  0  0  0  0  0
   -5.9374  -16.4370   31.5177 C   0  0  0  0  0  0  0  0  0  0  0  0
   -5.7777  -17.9108   31.9935 C   0  0  0  0  0  0  0  0  0  0  0  0
   -6.0901  -18.2925   33.4363 C   0  0  0  0  0  0  0  0  0  0  0  0
   -7.5293  -18.2847   33.7860 C   0  0  0  0  0  0  0  0  0  0  0  0
   -8.1920  -17.1755   33.1964 N   0  0  0  0  0  0  0  0  0  0  0  0
   -7.3074  -16.1797   32.6380 C   0  0  0  0  0  0  0  0  0  0  0  0
   -7.5963  -16.0713   27.5791 H   0  0  0  0  0  0  0  0  0  0  0  0
   -8.0059  -14.5314   28.1162 H   0  0  0  0  0  0  0  0  0  0  0  0
   -6.7615  -14.5157   27.0918 H   0  0  0  0  0  0  0  0  0  0  0  0
   -4.1649  -16.5042   28.8002 H   0  0  0  0  0  0  0  0  0  0  0  0
   -5.6567  -17.2467   29.6744 H   0  0  0  0  0  0  0  0  0  0  0  0
   -5.6343  -17.3488   28.2862 H   0  0  0  0  0  0  0  0  0  0  0  0
   -4.9195  -13.1995   31.0919 H   0  0  0  0  0  0  0  0  0  0  0  0
   -6.8728  -10.1519   29.1711 H   0  0  0  0  0  0  0  0  0  0  0  0
   -5.2960   -8.6293   29.6752 H   0  0  0  0  0  0  0  0  0  0  0  0
   -1.0177   -9.6906   31.3937 H   0  0  0  0  0  0  0  0  0  0  0  0
   -2.3019  -10.7311   30.9163 H   0  0  0  0  0  0  0  0  0  0  0  0
   -1.6403  -10.6920   32.6017 H   0  0  0  0  0  0  0  0  0  0  0  0
   -4.1549   -9.0432   34.1074 H   0  0  0  0  0  0  0  0  0  0  0  0
   -2.6013   -8.2268   34.1784 H   0  0  0  0  0  0  0  0  0  0  0  0
   -2.6692   -9.9527   34.2025 H   0  0  0  0  0  0  0  0  0  0  0  0
   -0.9007   -6.6742   31.8987 H   0  0  0  0  0  0  0  0  0  0  0  0
   -5.0982  -16.2709   32.2121 H   0  0  0  0  0  0  0  0  0  0  0  0
   -4.7311  -18.1781   32.0190 H   0  0  0  0  0  0  0  0  0  0  0  0
   -6.4189  -18.4618   31.3696 H   0  0  0  0  0  0  0  0  0  0  0  0
   -5.5158  -17.6719   34.1348 H   0  0  0  0  0  0  0  0  0  0  0  0
   -5.8035  -19.3293   33.5422 H   0  0  0  0  0  0  0  0  0  0  0  0
   -7.6405  -18.2881   34.8748 H   0  0  0  0  0  0  0  0  0  0  0  0
   -7.9575  -19.1958   33.3704 H   0  0  0  0  0  0  0  0  0  0  0  0
   -8.8632  -16.7208   33.8159 H   0  0  0  0  0  0  0  0  0  0  0  0
   -7.9339  -15.4299   32.1395 H   0  0  0  0  0  0  0  0  0  0  0  0
   -6.8264  -15.7920   33.5406 H   0  0  0  0  0  0  0  0  0  0  0  0
  1  2  1  0
  2  3  1  0
  2  4  1  0
  4  5  2  0
  4  6  1  0
  6  7  1  0
  7  8  1  0
  8  9  2  0
  9 10  1  0
 10 11  1  0
 11 12  1  0
 11 13  1  0
 11 14  1  0
 14 15  2  0
 14 16  1  0
 10 17  1  0
  2 18  1  0
 18 19  1  0
 19 20  1  0
 20 21  1  0
 21 22  1  0
 22 23  1  0
 17  7  2  0
 23 18  1  0
  1 24  1  0
  1 25  1  0
  1 26  1  0
  3 27  1  0
  3 28  1  0
  3 29  1  0
  6 30  1  0
  8 31  1  0
  9 32  1  0
 12 33  1  0
 12 34  1  0
 12 35  1  0
 13 36  1  0
 13 37  1  0
 13 38  1  0
 16 39  1  0
 18 40  1  0
 19 41  1  0
 19 42  1  0
 20 43  1  0
 20 44  1  0
 21 45  1  0
 21 46  1  0
 22 47  1  0
 23 48  1  0
 23 49  1  0
M  END
>  <Energy>  (558) 
521.61321747111435

>  <compound_id>  (558) 
49529

>  <target_id>  (558) 
1

>  <reference_id>  (558) 
70

>  <inspiration_ids>  (558) 
[96, 70]

>  <energy_score>  (558) 
462.36387679129786

>  <distance_score>  (558) 
10.507914292485186

>  <path>  (558) 
/opt/xchem-fragalysis-2/maxwin/BulkDock/SCRATCH/511020/C49529-P70/C49529-P70.minimised.mol

>  <scratch_subdir>  (558) 
/opt/xchem-fragalysis-2/maxwin/BulkDock/SCRATCH/511020/C49529-P70

>  <fragmenstein_runtime>  (558) 
68.04339337348938

>  <fragmenstein_outcome>  (558) 
too moved

>  <fragmenstein_mode>  (558) 
expansion

>  <fragmenstein_error>  (558) 


$$$$
C51128-P96
     RDKit          3D

 52 53  0  0  0  0  0  0  0  0999 V2000
   -4.9994    0.0888   24.0096 C   0  0  0  0  0  0  0  0  0  0  0  0
   -6.1450   -1.1767   24.0301 C   0  0  0  0  0  0  0  0  0  0  0  0
   -6.5618   -2.3300   25.5248 C   0  0  0  0  0  0  0  0  0  0  0  0
   -7.3256   -4.3092   25.6927 N   0  0  0  0  0  0  0  0  0  0  0  0
   -6.4509   -6.1408   25.5698 C   0  0  0  0  0  0  0  0  0  0  0  0
   -5.2834   -6.0895   25.4375 O   0  0  0  0  0  0  0  0  0  0  0  0
   -7.3251   -7.9404   25.8057 C   0  0  0  0  0  0  0  0  0  0  0  0
   -7.7447   -8.0189   26.9419 O   0  0  0  0  0  0  0  0  0  0  0  0
   -7.4150   -9.5601   24.6759 N   0  0  0  0  0  0  0  0  0  0  0  0
   -7.9325  -11.4117   25.0881 C   0  0  0  0  0  0  0  0  0  0  0  0
   -8.4041  -12.9620   26.3424 C   0  0  0  0  0  0  0  0  0  0  0  0
   -8.5301  -14.9873   26.6738 C   0  0  0  0  0  0  0  0  0  0  0  0
   -8.1083  -16.8030   27.3452 N   0  0  0  0  0  0  0  0  0  0  0  0
   -6.8235  -18.1781   27.2745 C   0  0  0  0  0  0  0  0  0  0  0  0
   -7.1977  -20.1861   27.5247 C   0  0  0  0  0  0  0  0  0  0  0  0
   -8.4340  -20.9903   28.3445 N   0  0  0  0  0  0  0  0  0  0  0  0
   -9.5812  -19.8316   28.4128 C   0  0  0  0  0  0  0  0  0  0  0  0
   -8.9869  -17.8340   28.2135 C   0  0  0  0  0  0  0  0  0  0  0  0
   -5.0453   -1.1081   26.1938 C   0  0  0  0  0  0  0  0  0  0  0  0
   -4.9969   -0.5424   27.6940 C   0  0  0  0  0  0  0  0  0  0  0  0
   -3.7515   -0.0185   27.9038 C   0  0  0  0  0  0  0  0  0  0  0  0
   -3.0571   -0.3282   26.7832 N   0  0  0  0  0  0  0  0  0  0  0  0
   -1.6719   -0.0131   26.5225 C   0  0  0  0  0  0  0  0  0  0  0  0
   -3.6924   -1.1575   25.9439 N   0  0  0  0  0  0  0  0  0  0  0  0
   -5.0703    0.8698   24.7584 H   0  0  0  0  0  0  0  0  0  0  0  0
   -3.9714   -0.2658   24.0229 H   0  0  0  0  0  0  0  0  0  0  0  0
   -5.0089    0.6200   23.0490 H   0  0  0  0  0  0  0  0  0  0  0  0
   -6.9637   -1.1313   23.3428 H   0  0  0  0  0  0  0  0  0  0  0  0
   -5.4951   -1.5516   23.2533 H   0  0  0  0  0  0  0  0  0  0  0  0
   -7.4200   -1.8811   26.0237 H   0  0  0  0  0  0  0  0  0  0  0  0
   -8.3058   -4.4322   25.7163 H   0  0  0  0  0  0  0  0  0  0  0  0
   -7.1384   -9.3412   23.7936 H   0  0  0  0  0  0  0  0  0  0  0  0
   -7.0813  -11.4001   25.7462 H   0  0  0  0  0  0  0  0  0  0  0  0
   -8.9507  -11.0121   25.1332 H   0  0  0  0  0  0  0  0  0  0  0  0
   -7.9037  -12.6449   27.2559 H   0  0  0  0  0  0  0  0  0  0  0  0
   -9.4721  -12.7671   26.4682 H   0  0  0  0  0  0  0  0  0  0  0  0
   -7.6778  -14.8163   27.2923 H   0  0  0  0  0  0  0  0  0  0  0  0
   -8.6635  -15.1461   25.6231 H   0  0  0  0  0  0  0  0  0  0  0  0
   -6.0667  -18.1468   26.4811 H   0  0  0  0  0  0  0  0  0  0  0  0
   -6.2092  -17.6546   28.0304 H   0  0  0  0  0  0  0  0  0  0  0  0
   -7.1681  -20.9945   26.7906 H   0  0  0  0  0  0  0  0  0  0  0  0
   -6.2604  -20.6810   27.8470 H   0  0  0  0  0  0  0  0  0  0  0  0
   -8.7460  -21.8924   27.9892 H   0  0  0  0  0  0  0  0  0  0  0  0
  -10.0278  -19.8674   29.4262 H   0  0  0  0  0  0  0  0  0  0  0  0
  -10.3498  -20.2879   27.7540 H   0  0  0  0  0  0  0  0  0  0  0  0
   -9.7452  -17.2864   28.7582 H   0  0  0  0  0  0  0  0  0  0  0  0
   -8.1189  -17.6531   28.7227 H   0  0  0  0  0  0  0  0  0  0  0  0
   -5.8425   -0.5435   28.3720 H   0  0  0  0  0  0  0  0  0  0  0  0
   -3.3116    0.5076   28.7390 H   0  0  0  0  0  0  0  0  0  0  0  0
   -1.0936   -0.9397   26.5612 H   0  0  0  0  0  0  0  0  0  0  0  0
   -1.3100    0.6888   27.2778 H   0  0  0  0  0  0  0  0  0  0  0  0
   -1.6044    0.4420   25.5309 H   0  0  0  0  0  0  0  0  0  0  0  0
  1  2  1  0
  2  3  1  0
  3  4  1  0
  4  5  1  0
  5  6  2  0
  5  7  1  0
  7  8  2  0
  7  9  1  0
  9 10  1  0
 10 11  1  0
 11 12  1  0
 12 13  1  0
 13 14  1  0
 14 15  1  0
 15 16  1  0
 16 17  1  0
 17 18  1  0
  3 19  1  0
 19 20  1  0
 20 21  2  0
 21 22  1  0
 22 23  1  0
 22 24  1  0
 18 13  1  0
 24 19  2  0
  1 25  1  0
  1 26  1  0
  1 27  1  0
  2 28  1  0
  2 29  1  0
  3 30  1  0
  4 31  1  0
  9 32  1  0
 10 33  1  0
 10 34  1  0
 11 35  1  0
 11 36  1  0
 12 37  1  0
 12 38  1  0
 14 39  1  0
 14 40  1  0
 15 41  1  0
 15 42  1  0
 16 43  1  0
 17 44  1  0
 17 45  1  0
 18 46  1  0
 18 47  1  0
 20 48  1  0
 21 49  1  0
 23 50  1  0
 23 51  1  0
 23 52  1  0
M  END
>  <Energy>  (559) 
1620.1253411802847

>  <compound_id>  (559) 
51128

>  <target_id>  (559) 
1

>  <reference_id>  (559) 
96

>  <inspiration_ids>  (559) 
[96, 70]

>  <energy_score>  (559) 
1465.836480415165

>  <distance_score>  (559) 
5.634846822135324

>  <path>  (559) 
/opt/xchem-fragalysis-2/maxwin/BulkDock/SCRATCH/511020/C51128-P96/C51128-P96.minimised.mol

>  <scratch_subdir>  (559) 
/opt/xchem-fragalysis-2/maxwin/BulkDock/SCRATCH/511020/C51128-P96

>  <fragmenstein_runtime>  (559) 
29.55098056793213

>  <fragmenstein_outcome>  (559) 
too moved

>  <fragmenstein_mode>  (559) 
expansion

>  <fragmenstein_error>  (559) 


$$$$
C51128-P70
     RDKit          3D

 52 53  0  0  0  0  0  0  0  0999 V2000
   -1.9220    0.7498   22.3978 C   0  0  0  0  0  0  0  0  0  0  0  0
   -2.4642   -1.3163   22.6536 C   0  0  0  0  0  0  0  0  0  0  0  0
   -3.4357   -2.5968   21.4819 C   0  0  0  0  0  0  0  0  0  0  0  0
   -3.0710   -4.6238   22.2553 N   0  0  0  0  0  0  0  0  0  0  0  0
   -3.0989   -6.5386   21.4224 C   0  0  0  0  0  0  0  0  0  0  0  0
   -3.2575   -6.6187   20.2166 O   0  0  0  0  0  0  0  0  0  0  0  0
   -3.1190   -8.5858   22.3928 C   0  0  0  0  0  0  0  0  0  0  0  0
   -2.2602   -8.6313   23.2389 O   0  0  0  0  0  0  0  0  0  0  0  0
   -4.4640  -10.1276   22.3539 N   0  0  0  0  0  0  0  0  0  0  0  0
   -4.9971  -11.8934   23.7680 C   0  0  0  0  0  0  0  0  0  0  0  0
   -6.5582  -13.0562   25.1206 C   0  0  0  0  0  0  0  0  0  0  0  0
   -7.8266  -14.8259   25.9731 C   0  0  0  0  0  0  0  0  0  0  0  0
   -8.5146  -16.7916   26.7139 N   0  0  0  0  0  0  0  0  0  0  0  0
   -8.8811  -18.7507   26.9903 C   0  0  0  0  0  0  0  0  0  0  0  0
   -9.6278  -20.7479   26.7618 C   0  0  0  0  0  0  0  0  0  0  0  0
  -10.0703  -21.7185   27.7460 N   0  0  0  0  0  0  0  0  0  0  0  0
  -10.0151  -20.4154   28.4155 C   0  0  0  0  0  0  0  0  0  0  0  0
   -8.8571  -18.4956   27.8875 C   0  0  0  0  0  0  0  0  0  0  0  0
   -4.1242   -0.4212   21.1884 C   0  0  0  0  0  0  0  0  0  0  0  0
   -4.9947    1.3770   20.3971 C   0  0  0  0  0  0  0  0  0  0  0  0
   -4.7309    2.6587   20.7014 C   0  0  0  0  0  0  0  0  0  0  0  0
   -4.2695    2.3324   21.8833 N   0  0  0  0  0  0  0  0  0  0  0  0
   -3.7539    3.4156   22.7788 C   0  0  0  0  0  0  0  0  0  0  0  0
   -4.0491    0.5985   22.0243 N   0  0  0  0  0  0  0  0  0  0  0  0
   -2.5194    1.6191   22.6859 H   0  0  0  0  0  0  0  0  0  0  0  0
   -1.0854    1.1522   23.0839 H   0  0  0  0  0  0  0  0  0  0  0  0
   -1.5893    1.4267   21.6318 H   0  0  0  0  0  0  0  0  0  0  0  0
   -1.6436   -2.0295   22.8392 H   0  0  0  0  0  0  0  0  0  0  0  0
   -2.4463   -0.8067   21.8239 H   0  0  0  0  0  0  0  0  0  0  0  0
   -4.2662   -2.8958   22.1237 H   0  0  0  0  0  0  0  0  0  0  0  0
   -2.8478   -4.6965   23.2403 H   0  0  0  0  0  0  0  0  0  0  0  0
   -5.0094  -10.0259   21.6188 H   0  0  0  0  0  0  0  0  0  0  0  0
   -5.9300  -11.3250   24.0248 H   0  0  0  0  0  0  0  0  0  0  0  0
   -5.6735  -12.4782   23.0411 H   0  0  0  0  0  0  0  0  0  0  0  0
   -6.2809  -12.8281   26.1881 H   0  0  0  0  0  0  0  0  0  0  0  0
   -7.1523  -12.1239   25.2911 H   0  0  0  0  0  0  0  0  0  0  0  0
   -8.4360  -14.2872   26.7063 H   0  0  0  0  0  0  0  0  0  0  0  0
   -8.3643  -15.0654   25.0610 H   0  0  0  0  0  0  0  0  0  0  0  0
   -7.7370  -19.0556   26.7718 H   0  0  0  0  0  0  0  0  0  0  0  0
   -8.0390  -19.8012   27.4216 H   0  0  0  0  0  0  0  0  0  0  0  0
  -10.0434  -20.7248   25.7964 H   0  0  0  0  0  0  0  0  0  0  0  0
  -10.7380  -21.1303   26.4631 H   0  0  0  0  0  0  0  0  0  0  0  0
  -11.0377  -22.0624   27.7083 H   0  0  0  0  0  0  0  0  0  0  0  0
  -10.0605  -20.8010   29.4889 H   0  0  0  0  0  0  0  0  0  0  0  0
  -11.1437  -20.4258   28.6031 H   0  0  0  0  0  0  0  0  0  0  0  0
   -7.8576  -18.6102   28.4601 H   0  0  0  0  0  0  0  0  0  0  0  0
   -8.6559  -17.8290   28.6685 H   0  0  0  0  0  0  0  0  0  0  0  0
   -5.7642    1.2878   19.5606 H   0  0  0  0  0  0  0  0  0  0  0  0
   -4.9170    3.6334   20.2661 H   0  0  0  0  0  0  0  0  0  0  0  0
   -3.1544    3.0789   23.6249 H   0  0  0  0  0  0  0  0  0  0  0  0
   -4.5980    3.9928   23.1501 H   0  0  0  0  0  0  0  0  0  0  0  0
   -3.1483    4.0926   22.1712 H   0  0  0  0  0  0  0  0  0  0  0  0
  1  2  1  0
  2  3  1  0
  3  4  1  0
  4  5  1  0
  5  6  2  0
  5  7  1  0
  7  8  2  0
  7  9  1  0
  9 10  1  0
 10 11  1  0
 11 12  1  0
 12 13  1  0
 13 14  1  0
 14 15  1  0
 15 16  1  0
 16 17  1  0
 17 18  1  0
  3 19  1  0
 19 20  1  0
 20 21  2  0
 21 22  1  0
 22 23  1  0
 22 24  1  0
 18 13  1  0
 24 19  2  0
  1 25  1  0
  1 26  1  0
  1 27  1  0
  2 28  1  0
  2 29  1  0
  3 30  1  0
  4 31  1  0
  9 32  1  0
 10 33  1  0
 10 34  1  0
 11 35  1  0
 11 36  1  0
 12 37  1  0
 12 38  1  0
 14 39  1  0
 14 40  1  0
 15 41  1  0
 15 42  1  0
 16 43  1  0
 17 44  1  0
 17 45  1  0
 18 46  1  0
 18 47  1  0
 20 48  1  0
 21 49  1  0
 23 50  1  0
 23 51  1  0
 23 52  1  0
M  END
>  <Energy>  (560) 
4326.9495822797635

>  <compound_id>  (560) 
51128

>  <target_id>  (560) 
1

>  <reference_id>  (560) 
70

>  <inspiration_ids>  (560) 
[96, 70]

>  <energy_score>  (560) 
4172.660721514641

>  <distance_score>  (560) 
6.627103562831469

>  <path>  (560) 
/opt/xchem-fragalysis-2/maxwin/BulkDock/SCRATCH/511020/C51128-P70/C51128-P70.minimised.mol

>  <scratch_subdir>  (560) 
/opt/xchem-fragalysis-2/maxwin/BulkDock/SCRATCH/511020/C51128-P70

>  <fragmenstein_runtime>  (560) 
33.41945934295654

>  <fragmenstein_outcome>  (560) 
too moved

>  <fragmenstein_mode>  (560) 
expansion

>  <fragmenstein_error>  (560) 


$$$$
C8570-P96
     RDKit          3D

 53 54  0  0  0  0  0  0  0  0999 V2000
   -6.6354  -12.1468   28.5514 C   0  0  0  0  0  0  0  0  0  0  0  0
   -7.5933  -12.3938   27.1744 C   0  0  0  0  0  0  0  0  0  0  0  0
   -9.0835  -12.9690   26.9451 C   0  0  0  0  0  0  0  0  0  0  0  0
   -9.6804  -13.1394   25.5440 N   0  0  0  0  0  0  0  0  0  0  0  0
  -10.6958  -11.7686   25.1370 C   0  0  0  0  0  0  0  0  0  0  0  0
  -11.8924  -11.6013   25.3048 O   0  0  0  0  0  0  0  0  0  0  0  0
   -9.9101  -10.1708   24.3096 C   0  0  0  0  0  0  0  0  0  0  0  0
   -8.7300  -10.0531   24.1796 O   0  0  0  0  0  0  0  0  0  0  0  0
  -10.9900   -9.2293   24.0258 N   0  0  0  0  0  0  0  0  0  0  0  0
  -10.9628   -7.8410   23.4301 C   0  0  0  0  0  0  0  0  0  0  0  0
  -10.7774   -7.8475   21.8947 C   0  0  0  0  0  0  0  0  0  0  0  0
   -9.3903   -8.1855   21.3796 C   0  0  0  0  0  0  0  0  0  0  0  0
  -10.0429   -6.7474   24.0673 C   0  0  0  0  0  0  0  0  0  0  0  0
   -9.2174   -6.7937   25.2121 C   0  0  0  0  0  0  0  0  0  0  0  0
   -8.6599   -5.5412   25.3409 C   0  0  0  0  0  0  0  0  0  0  0  0
   -9.1199   -4.8135   24.2985 N   0  0  0  0  0  0  0  0  0  0  0  0
   -8.7955   -3.4321   24.0150 C   0  0  0  0  0  0  0  0  0  0  0  0
   -9.9721   -5.5045   23.5175 N   0  0  0  0  0  0  0  0  0  0  0  0
  -10.1714  -14.6990   26.1782 C   0  0  0  0  0  0  0  0  0  0  0  0
  -10.5768  -15.9722   25.2635 C   0  0  0  0  0  0  0  0  0  0  0  0
  -11.9888  -16.5431   25.0762 C   0  0  0  0  0  0  0  0  0  0  0  0
  -12.6300  -16.8493   26.3339 N   0  0  0  0  0  0  0  0  0  0  0  0
  -12.7401  -15.6488   27.1288 C   0  0  0  0  0  0  0  0  0  0  0  0
  -11.8005  -14.4580   26.7353 C   0  0  0  0  0  0  0  0  0  0  0  0
   -7.1566  -12.0053   29.4985 H   0  0  0  0  0  0  0  0  0  0  0  0
   -5.8829  -11.3511   28.4422 H   0  0  0  0  0  0  0  0  0  0  0  0
   -6.0777  -13.0443   28.8275 H   0  0  0  0  0  0  0  0  0  0  0  0
   -7.3049  -11.8997   26.2492 H   0  0  0  0  0  0  0  0  0  0  0  0
   -7.0556  -13.2898   27.2323 H   0  0  0  0  0  0  0  0  0  0  0  0
   -8.6270  -13.9068   27.1980 H   0  0  0  0  0  0  0  0  0  0  0  0
   -9.7697  -12.5665   27.6357 H   0  0  0  0  0  0  0  0  0  0  0  0
  -11.8718   -9.6330   24.3347 H   0  0  0  0  0  0  0  0  0  0  0  0
  -11.9851   -7.4830   23.6187 H   0  0  0  0  0  0  0  0  0  0  0  0
  -11.4834   -8.5707   21.4659 H   0  0  0  0  0  0  0  0  0  0  0  0
  -11.0648   -6.8703   21.4854 H   0  0  0  0  0  0  0  0  0  0  0  0
   -9.3887   -8.1724   20.2844 H   0  0  0  0  0  0  0  0  0  0  0  0
   -8.6505   -7.4543   21.7138 H   0  0  0  0  0  0  0  0  0  0  0  0
   -9.0772   -9.1826   21.6923 H   0  0  0  0  0  0  0  0  0  0  0  0
   -9.0705   -7.6353   25.8704 H   0  0  0  0  0  0  0  0  0  0  0  0
   -8.0191   -5.1189   26.0915 H   0  0  0  0  0  0  0  0  0  0  0  0
   -8.2939   -2.9897   24.8787 H   0  0  0  0  0  0  0  0  0  0  0  0
   -8.1437   -3.4101   23.1386 H   0  0  0  0  0  0  0  0  0  0  0  0
   -9.7257   -2.8944   23.8144 H   0  0  0  0  0  0  0  0  0  0  0  0
   -9.2337  -15.1967   26.4334 H   0  0  0  0  0  0  0  0  0  0  0  0
  -10.0999  -16.7679   25.7982 H   0  0  0  0  0  0  0  0  0  0  0  0
  -10.1260  -15.9365   24.2923 H   0  0  0  0  0  0  0  0  0  0  0  0
  -12.6351  -15.8840   24.4912 H   0  0  0  0  0  0  0  0  0  0  0  0
  -11.9184  -17.4702   24.4942 H   0  0  0  0  0  0  0  0  0  0  0  0
  -12.2223  -17.6476   26.8087 H   0  0  0  0  0  0  0  0  0  0  0  0
  -12.7181  -15.9229   28.1847 H   0  0  0  0  0  0  0  0  0  0  0  0
  -13.7664  -15.2764   27.0003 H   0  0  0  0  0  0  0  0  0  0  0  0
  -11.8649  -13.6776   27.5048 H   0  0  0  0  0  0  0  0  0  0  0  0
  -12.3621  -13.9771   25.9230 H   0  0  0  0  0  0  0  0  0  0  0  0
  1  2  1  0
  2  3  1  0
  3  4  1  0
  4  5  1  0
  5  6  2  0
  5  7  1  0
  7  8  2  0
  7  9  1  0
  9 10  1  0
 10 11  1  0
 11 12  1  0
 10 13  1  0
 13 14  1  0
 14 15  2  0
 15 16  1  0
 16 17  1  0
 16 18  1  0
  4 19  1  0
 19 20  1  0
 20 21  1  0
 21 22  1  0
 22 23  1  0
 23 24  1  0
 18 13  2  0
 24 19  1  0
  1 25  1  0
  1 26  1  0
  1 27  1  0
  2 28  1  0
  2 29  1  0
  3 30  1  0
  3 31  1  0
  9 32  1  0
 10 33  1  0
 11 34  1  0
 11 35  1  0
 12 36  1  0
 12 37  1  0
 12 38  1  0
 14 39  1  0
 15 40  1  0
 17 41  1  0
 17 42  1  0
 17 43  1  0
 19 44  1  0
 20 45  1  0
 20 46  1  0
 21 47  1  0
 21 48  1  0
 22 49  1  0
 23 50  1  0
 23 51  1  0
 24 52  1  0
 24 53  1  0
M  END
>  <Energy>  (561) 
344.91223351623319

>  <compound_id>  (561) 
8570

>  <target_id>  (561) 
1

>  <reference_id>  (561) 
96

>  <inspiration_ids>  (561) 
[96, 70]

>  <energy_score>  (561) 
253.1689032485766

>  <distance_score>  (561) 
11.516893578539724

>  <path>  (561) 
/opt/xchem-fragalysis-2/maxwin/BulkDock/SCRATCH/511020/C8570-P96/C8570-P96.minimised.mol

>  <scratch_subdir>  (561) 
/opt/xchem-fragalysis-2/maxwin/BulkDock/SCRATCH/511020/C8570-P96

>  <fragmenstein_runtime>  (561) 
50.365981101989746

>  <fragmenstein_outcome>  (561) 
too moved

>  <fragmenstein_mode>  (561) 
expansion

>  <fragmenstein_error>  (561) 


$$$$
C8570-P70
     RDKit          3D

 53 54  0  0  0  0  0  0  0  0999 V2000
   -5.3492  -14.4141   16.2540 C   0  0  0  0  0  0  0  0  0  0  0  0
   -5.2838  -13.5590   17.5134 C   0  0  0  0  0  0  0  0  0  0  0  0
   -6.3746  -13.9685   18.5329 C   0  0  0  0  0  0  0  0  0  0  0  0
   -6.2591  -13.2066   19.8447 N   0  0  0  0  0  0  0  0  0  0  0  0
   -6.5592  -11.7888   19.6312 C   0  0  0  0  0  0  0  0  0  0  0  0
   -7.6029  -11.1908   19.7030 O   0  0  0  0  0  0  0  0  0  0  0  0
   -5.2419  -10.8850   19.3614 C   0  0  0  0  0  0  0  0  0  0  0  0
   -4.2021  -11.4598   19.2143 O   0  0  0  0  0  0  0  0  0  0  0  0
   -5.5523   -9.4669   19.3271 N   0  0  0  0  0  0  0  0  0  0  0  0
   -4.6773   -8.2921   19.1978 C   0  0  0  0  0  0  0  0  0  0  0  0
   -4.6392   -7.6694   17.7897 C   0  0  0  0  0  0  0  0  0  0  0  0
   -6.0002   -7.3252   17.1952 C   0  0  0  0  0  0  0  0  0  0  0  0
   -4.8805   -7.2237   20.2585 C   0  0  0  0  0  0  0  0  0  0  0  0
   -3.9311   -6.8643   21.2422 C   0  0  0  0  0  0  0  0  0  0  0  0
   -4.4513   -5.7595   21.8602 C   0  0  0  0  0  0  0  0  0  0  0  0
   -5.6657   -5.5425   21.3016 N   0  0  0  0  0  0  0  0  0  0  0  0
   -6.6137   -4.5257   21.6847 C   0  0  0  0  0  0  0  0  0  0  0  0
   -5.9468   -6.4039   20.2999 N   0  0  0  0  0  0  0  0  0  0  0  0
   -7.1875  -14.3997   20.3584 C   0  0  0  0  0  0  0  0  0  0  0  0
   -6.3708  -15.5341   21.0568 C   0  0  0  0  0  0  0  0  0  0  0  0
   -7.0606  -16.9027   21.0496 C   0  0  0  0  0  0  0  0  0  0  0  0
   -8.4279  -16.7784   21.5048 N   0  0  0  0  0  0  0  0  0  0  0  0
   -9.2542  -16.0107   20.5803 C   0  0  0  0  0  0  0  0  0  0  0  0
   -8.5225  -14.9373   19.7361 C   0  0  0  0  0  0  0  0  0  0  0  0
   -6.3246  -14.3190   15.7665 H   0  0  0  0  0  0  0  0  0  0  0  0
   -4.5803  -14.0978   15.5422 H   0  0  0  0  0  0  0  0  0  0  0  0
   -5.1815  -15.4707   16.4860 H   0  0  0  0  0  0  0  0  0  0  0  0
   -4.2924  -13.6710   17.9662 H   0  0  0  0  0  0  0  0  0  0  0  0
   -5.4079  -12.5134   17.2154 H   0  0  0  0  0  0  0  0  0  0  0  0
   -7.3214  -13.7064   18.0386 H   0  0  0  0  0  0  0  0  0  0  0  0
   -6.2090  -15.0532   18.6107 H   0  0  0  0  0  0  0  0  0  0  0  0
   -6.5609   -9.3448   19.4111 H   0  0  0  0  0  0  0  0  0  0  0  0
   -3.6673   -8.6941   19.3636 H   0  0  0  0  0  0  0  0  0  0  0  0
   -4.1662   -8.3928   17.1124 H   0  0  0  0  0  0  0  0  0  0  0  0
   -4.0039   -6.7749   17.7827 H   0  0  0  0  0  0  0  0  0  0  0  0
   -6.6536   -8.2022   17.1566 H   0  0  0  0  0  0  0  0  0  0  0  0
   -6.5084   -6.5391   17.7583 H   0  0  0  0  0  0  0  0  0  0  0  0
   -5.8741   -6.9622   16.1697 H   0  0  0  0  0  0  0  0  0  0  0  0
   -2.9778   -7.3326   21.4430 H   0  0  0  0  0  0  0  0  0  0  0  0
   -4.0472   -5.1357   22.6336 H   0  0  0  0  0  0  0  0  0  0  0  0
   -6.1079   -3.7493   22.2572 H   0  0  0  0  0  0  0  0  0  0  0  0
   -7.3903   -4.9976   22.2915 H   0  0  0  0  0  0  0  0  0  0  0  0
   -7.0491   -4.0948   20.7798 H   0  0  0  0  0  0  0  0  0  0  0  0
   -7.5900  -13.8422   21.2137 H   0  0  0  0  0  0  0  0  0  0  0  0
   -5.3832  -15.6417   20.5933 H   0  0  0  0  0  0  0  0  0  0  0  0
   -6.1877  -15.2150   22.0891 H   0  0  0  0  0  0  0  0  0  0  0  0
   -6.5247  -17.5904   21.7084 H   0  0  0  0  0  0  0  0  0  0  0  0
   -7.0233  -17.3447   20.0463 H   0  0  0  0  0  0  0  0  0  0  0  0
   -8.8432  -17.7010   21.6442 H   0  0  0  0  0  0  0  0  0  0  0  0
   -9.7409  -16.7052   19.8829 H   0  0  0  0  0  0  0  0  0  0  0  0
  -10.0749  -15.5470   21.1363 H   0  0  0  0  0  0  0  0  0  0  0  0
   -9.2016  -14.0975   19.5438 H   0  0  0  0  0  0  0  0  0  0  0  0
   -8.3355  -15.4119   18.7648 H   0  0  0  0  0  0  0  0  0  0  0  0
  1  2  1  0
  2  3  1  0
  3  4  1  0
  4  5  1  0
  5  6  2  0
  5  7  1  0
  7  8  2  0
  7  9  1  0
  9 10  1  0
 10 11  1  0
 11 12  1  0
 10 13  1  0
 13 14  1  0
 14 15  2  0
 15 16  1  0
 16 17  1  0
 16 18  1  0
  4 19  1  0
 19 20  1  0
 20 21  1  0
 21 22  1  0
 22 23  1  0
 23 24  1  0
 18 13  2  0
 24 19  1  0
  1 25  1  0
  1 26  1  0
  1 27  1  0
  2 28  1  0
  2 29  1  0
  3 30  1  0
  3 31  1  0
  9 32  1  0
 10 33  1  0
 11 34  1  0
 11 35  1  0
 12 36  1  0
 12 37  1  0
 12 38  1  0
 14 39  1  0
 15 40  1  0
 17 41  1  0
 17 42  1  0
 17 43  1  0
 19 44  1  0
 20 45  1  0
 20 46  1  0
 21 47  1  0
 21 48  1  0
 22 49  1  0
 23 50  1  0
 23 51  1  0
 24 52  1  0
 24 53  1  0
M  END
>  <Energy>  (562) 
145.70870763061944

>  <compound_id>  (562) 
8570

>  <target_id>  (562) 
1

>  <reference_id>  (562) 
70

>  <inspiration_ids>  (562) 
[96, 70]

>  <energy_score>  (562) 
53.96537736295886

>  <distance_score>  (562) 
12.799350793277178

>  <path>  (562) 
/opt/xchem-fragalysis-2/maxwin/BulkDock/SCRATCH/511020/C8570-P70/C8570-P70.minimised.mol

>  <scratch_subdir>  (562) 
/opt/xchem-fragalysis-2/maxwin/BulkDock/SCRATCH/511020/C8570-P70

>  <fragmenstein_runtime>  (562) 
66.19850373268127

>  <fragmenstein_outcome>  (562) 
too moved

>  <fragmenstein_mode>  (562) 
expansion

>  <fragmenstein_error>  (562) 


$$$$
C84630-P120
     RDKit          3D

 26 26  0  0  0  0  0  0  0  0999 V2000
   13.3049   -3.1499   17.0013 N   0  0  0  0  0  0  0  0  0  0  0  0
   14.3535   -3.2868   16.5269 C   0  0  0  0  0  0  0  0  0  0  0  0
   15.7364   -3.4097   16.0306 C   0  0  0  0  0  0  0  0  0  0  0  0
   16.7243   -2.6808   16.9393 C   0  0  0  0  0  0  0  0  0  0  0  0
   16.9738   -1.2812   16.4054 C   0  0  0  0  0  0  0  0  0  0  0  0
   17.8918   -1.0268   15.7343 O   0  0  0  0  0  0  0  0  0  0  0  0
   15.7757   -0.4063   16.8364 N   0  0  0  0  0  0  0  0  0  0  0  0
   15.4106    0.9328   16.4540 C   0  0  0  0  0  0  0  0  0  0  0  0
   14.8822    0.9685   15.0145 C   0  0  0  0  0  0  0  0  0  0  0  0
   13.7232    0.0293   14.8036 C   0  0  0  0  0  0  0  0  0  0  0  0
   12.5483   -0.0699   15.5220 C   0  0  0  0  0  0  0  0  0  0  0  0
   11.7120   -1.1247   15.0620 C   0  0  0  0  0  0  0  0  0  0  0  0
   12.2791   -1.8108   14.0160 C   0  0  0  0  0  0  0  0  0  0  0  0
   13.7620   -1.1123   13.5295 S   0  0  0  0  0  0  0  0  0  0  0  0
   16.0155   -4.4654   16.0006 H   0  0  0  0  0  0  0  0  0  0  0  0
   15.8023   -3.0445   15.0004 H   0  0  0  0  0  0  0  0  0  0  0  0
   17.6906   -3.2006   16.9228 H   0  0  0  0  0  0  0  0  0  0  0  0
   16.4046   -2.6432   17.9868 H   0  0  0  0  0  0  0  0  0  0  0  0
   15.1131   -0.9717   17.3578 H   0  0  0  0  0  0  0  0  0  0  0  0
   16.3045    1.5597   16.5301 H   0  0  0  0  0  0  0  0  0  0  0  0
   14.6641    1.2925   17.1690 H   0  0  0  0  0  0  0  0  0  0  0  0
   15.7021    0.7249   14.3269 H   0  0  0  0  0  0  0  0  0  0  0  0
   14.5607    1.9891   14.7742 H   0  0  0  0  0  0  0  0  0  0  0  0
   12.2989    0.5798   16.3499 H   0  0  0  0  0  0  0  0  0  0  0  0
   10.7490   -1.3895   15.4782 H   0  0  0  0  0  0  0  0  0  0  0  0
   11.8656   -2.6606   13.4914 H   0  0  0  0  0  0  0  0  0  0  0  0
  1  2  3  0
  2  3  1  0
  3  4  1  0
  4  5  1  0
  5  6  2  0
  5  7  1  0
  7  8  1  0
  8  9  1  0
  9 10  1  0
 10 11  2  0
 11 12  1  0
 12 13  2  0
 13 14  1  0
 14 10  1  0
  3 15  1  0
  3 16  1  0
  4 17  1  0
  4 18  1  0
  7 19  1  0
  8 20  1  0
  8 21  1  0
  9 22  1  0
  9 23  1  0
 11 24  1  0
 12 25  1  0
 13 26  1  0
M  END
>  <Energy>  (563) 
-4.4897591163505437

>  <compound_id>  (563) 
84630

>  <target_id>  (563) 
1

>  <reference_id>  (563) 
120

>  <inspiration_ids>  (563) 
[120, 97]

>  <energy_score>  (563) 
-9.871566269275228

>  <distance_score>  (563) 
2.3793387410058613

>  <path>  (563) 
/opt/xchem-fragalysis-2/maxwin/BulkDock/SCRATCH/511020/C84630-P120/C84630-P120.minimised.mol

>  <scratch_subdir>  (563) 
/opt/xchem-fragalysis-2/maxwin/BulkDock/SCRATCH/511020/C84630-P120

>  <fragmenstein_runtime>  (563) 
1.9574620723724365

>  <fragmenstein_outcome>  (563) 
too moved

>  <fragmenstein_mode>  (563) 
expansion

>  <fragmenstein_error>  (563) 


$$$$
C84630-P97
     RDKit          3D

 26 26  0  0  0  0  0  0  0  0999 V2000
   12.5270   -3.7208   16.3288 N   0  0  0  0  0  0  0  0  0  0  0  0
   13.4211   -3.5642   17.0467 C   0  0  0  0  0  0  0  0  0  0  0  0
   14.4715   -3.2714   18.0288 C   0  0  0  0  0  0  0  0  0  0  0  0
   15.8616   -3.7127   17.6036 C   0  0  0  0  0  0  0  0  0  0  0  0
   16.3314   -3.1353   16.2744 C   0  0  0  0  0  0  0  0  0  0  0  0
   16.5732   -3.8253   15.3673 O   0  0  0  0  0  0  0  0  0  0  0  0
   16.4124   -1.5960   16.4129 N   0  0  0  0  0  0  0  0  0  0  0  0
   16.7176   -0.5804   15.4309 C   0  0  0  0  0  0  0  0  0  0  0  0
   15.5809    0.4249   15.2120 C   0  0  0  0  0  0  0  0  0  0  0  0
   14.2549   -0.2121   14.9159 C   0  0  0  0  0  0  0  0  0  0  0  0
   13.1117   -0.1828   15.6884 C   0  0  0  0  0  0  0  0  0  0  0  0
   12.0527   -0.9417   15.1202 C   0  0  0  0  0  0  0  0  0  0  0  0
   12.4384   -1.5670   13.9591 C   0  0  0  0  0  0  0  0  0  0  0  0
   14.0041   -1.0922   13.4714 S   0  0  0  0  0  0  0  0  0  0  0  0
   14.2212   -3.7689   18.9737 H   0  0  0  0  0  0  0  0  0  0  0  0
   14.4649   -2.1972   18.2425 H   0  0  0  0  0  0  0  0  0  0  0  0
   16.5957   -3.4425   18.3719 H   0  0  0  0  0  0  0  0  0  0  0  0
   15.8888   -4.8065   17.5153 H   0  0  0  0  0  0  0  0  0  0  0  0
   16.2083   -1.3314   17.3669 H   0  0  0  0  0  0  0  0  0  0  0  0
   17.6145   -0.0557   15.7754 H   0  0  0  0  0  0  0  0  0  0  0  0
   16.9680   -1.0914   14.4952 H   0  0  0  0  0  0  0  0  0  0  0  0
   15.8524    1.1122   14.4014 H   0  0  0  0  0  0  0  0  0  0  0  0
   15.4800    1.0385   16.1169 H   0  0  0  0  0  0  0  0  0  0  0  0
   13.0456    0.3539   16.6244 H   0  0  0  0  0  0  0  0  0  0  0  0
   11.0734   -1.0859   15.5553 H   0  0  0  0  0  0  0  0  0  0  0  0
   11.8596   -2.2554   13.3607 H   0  0  0  0  0  0  0  0  0  0  0  0
  1  2  3  0
  2  3  1  0
  3  4  1  0
  4  5  1  0
  5  6  2  0
  5  7  1  0
  7  8  1  0
  8  9  1  0
  9 10  1  0
 10 11  2  0
 11 12  1  0
 12 13  2  0
 13 14  1  0
 14 10  1  0
  3 15  1  0
  3 16  1  0
  4 17  1  0
  4 18  1  0
  7 19  1  0
  8 20  1  0
  8 21  1  0
  9 22  1  0
  9 23  1  0
 11 24  1  0
 12 25  1  0
 13 26  1  0
M  END
>  <Energy>  (564) 
1.8963707452286838

>  <compound_id>  (564) 
84630

>  <target_id>  (564) 
1

>  <reference_id>  (564) 
97

>  <inspiration_ids>  (564) 
[120, 97]

>  <energy_score>  (564) 
-3.4854364076968807

>  <distance_score>  (564) 
2.159934799651233

>  <path>  (564) 
/opt/xchem-fragalysis-2/maxwin/BulkDock/SCRATCH/511020/C84630-P97/C84630-P97.minimised.mol

>  <scratch_subdir>  (564) 
/opt/xchem-fragalysis-2/maxwin/BulkDock/SCRATCH/511020/C84630-P97

>  <fragmenstein_runtime>  (564) 
1.4528777599334717

>  <fragmenstein_outcome>  (564) 
too moved

>  <fragmenstein_mode>  (564) 
expansion

>  <fragmenstein_error>  (564) 


$$$$
C84632-P120
     RDKit          3D

 41 41  0  0  0  0  0  0  0  0999 V2000
   19.6699    0.2875   11.4392 C   0  0  0  0  0  0  0  0  0  0  0  0
   17.9775   -0.2855   11.7227 S   0  0  0  0  0  0  0  0  0  0  0  0
   17.7038    0.4818   13.3581 C   0  0  0  0  0  0  0  0  0  0  0  0
   16.2693    0.2930   13.8946 C   0  0  0  0  0  0  0  0  0  0  0  0
   15.9242   -1.1785   14.1643 C   0  0  0  0  0  0  0  0  0  0  0  0
   14.5186   -1.4493   14.6428 C   0  0  0  0  0  0  0  0  0  0  0  0
   14.1273   -2.0871   15.8049 C   0  0  0  0  0  0  0  0  0  0  0  0
   12.7207   -2.3131   15.8582 C   0  0  0  0  0  0  0  0  0  0  0  0
   12.0772   -1.8197   14.7492 C   0  0  0  0  0  0  0  0  0  0  0  0
   13.1680   -1.0699   13.6647 S   0  0  0  0  0  0  0  0  0  0  0  0
   16.0912    1.0700   15.1108 N   0  0  0  0  0  0  0  0  0  0  0  0
   16.1714    2.5979   15.3484 C   0  0  0  0  0  0  0  0  0  0  0  0
   16.4684    3.4611   14.6218 O   0  0  0  0  0  0  0  0  0  0  0  0
   15.6713    2.8935   16.7893 C   0  0  0  0  0  0  0  0  0  0  0  0
   16.3883    2.0549   17.8610 C   0  0  0  0  0  0  0  0  0  0  0  0
   16.0120    4.3771   17.0973 C   0  0  0  0  0  0  0  0  0  0  0  0
   14.1379    2.7488   16.8322 C   0  0  0  0  0  0  0  0  0  0  0  0
   13.5167    1.3710   16.6958 C   0  0  0  0  0  0  0  0  0  0  0  0
   13.5844    3.5177   15.8556 F   0  0  0  0  0  0  0  0  0  0  0  0
   13.6944    3.2592   18.0181 F   0  0  0  0  0  0  0  0  0  0  0  0
   20.3335   -0.0829   12.2248 H   0  0  0  0  0  0  0  0  0  0  0  0
   20.0226   -0.0941   10.4774 H   0  0  0  0  0  0  0  0  0  0  0  0
   19.7030    1.3798   11.4128 H   0  0  0  0  0  0  0  0  0  0  0  0
   17.9224    1.5506   13.2607 H   0  0  0  0  0  0  0  0  0  0  0  0
   18.4261    0.0627   14.0681 H   0  0  0  0  0  0  0  0  0  0  0  0
   15.5717    0.7264   13.1677 H   0  0  0  0  0  0  0  0  0  0  0  0
   16.0758   -1.7808   13.2602 H   0  0  0  0  0  0  0  0  0  0  0  0
   16.6244   -1.5772   14.9118 H   0  0  0  0  0  0  0  0  0  0  0  0
   14.8237   -2.4347   16.5589 H   0  0  0  0  0  0  0  0  0  0  0  0
   12.2147   -2.8412   16.6563 H   0  0  0  0  0  0  0  0  0  0  0  0
   11.0222   -1.8609   14.5119 H   0  0  0  0  0  0  0  0  0  0  0  0
   15.7197    0.6201   15.9335 H   0  0  0  0  0  0  0  0  0  0  0  0
   16.1328    2.4034   18.8684 H   0  0  0  0  0  0  0  0  0  0  0  0
   16.1371    0.9918   17.8261 H   0  0  0  0  0  0  0  0  0  0  0  0
   17.4761    2.1291   17.7464 H   0  0  0  0  0  0  0  0  0  0  0  0
   15.7058    4.6575   18.1116 H   0  0  0  0  0  0  0  0  0  0  0  0
   15.5105    5.0604   16.4019 H   0  0  0  0  0  0  0  0  0  0  0  0
   17.0902    4.5591   17.0143 H   0  0  0  0  0  0  0  0  0  0  0  0
   13.6119    1.0053   15.6779 H   0  0  0  0  0  0  0  0  0  0  0  0
   12.4416    1.4548   16.8745 H   0  0  0  0  0  0  0  0  0  0  0  0
   13.9127    0.6539   17.4174 H   0  0  0  0  0  0  0  0  0  0  0  0
  1  2  1  0
  2  3  1  0
  3  4  1  0
  4  5  1  0
  5  6  1  0
  6  7  2  0
  7  8  1  0
  8  9  2  0
  9 10  1  0
  4 11  1  0
 11 12  1  0
 12 13  2  0
 12 14  1  0
 14 15  1  0
 14 16  1  0
 14 17  1  0
 17 18  1  0
 17 19  1  0
 17 20  1  0
 10  6  1  0
  1 21  1  0
  1 22  1  0
  1 23  1  0
  3 24  1  0
  3 25  1  0
  4 26  1  0
  5 27  1  0
  5 28  1  0
  7 29  1  0
  8 30  1  0
  9 31  1  0
 11 32  1  0
 15 33  1  0
 15 34  1  0
 15 35  1  0
 16 36  1  0
 16 37  1  0
 16 38  1  0
 18 39  1  0
 18 40  1  0
 18 41  1  0
M  END
>  <Energy>  (565) 
40.798215167051026

>  <compound_id>  (565) 
84632

>  <target_id>  (565) 
1

>  <reference_id>  (565) 
120

>  <inspiration_ids>  (565) 
[120, 97]

>  <energy_score>  (565) 
-42.539298952680646

>  <distance_score>  (565) 
3.091446773212006

>  <path>  (565) 
/opt/xchem-fragalysis-2/maxwin/BulkDock/SCRATCH/511020/C84632-P120/C84632-P120.minimised.mol

>  <scratch_subdir>  (565) 
/opt/xchem-fragalysis-2/maxwin/BulkDock/SCRATCH/511020/C84632-P120

>  <fragmenstein_runtime>  (565) 
4.188192844390869

>  <fragmenstein_outcome>  (565) 
too moved

>  <fragmenstein_mode>  (565) 
expansion

>  <fragmenstein_error>  (565) 


$$$$
C84632-P97
     RDKit          3D

 41 41  0  0  0  0  0  0  0  0999 V2000
   18.2694   -3.3810   17.9578 C   0  0  0  0  0  0  0  0  0  0  0  0
   17.3118   -1.8600   17.7450 S   0  0  0  0  0  0  0  0  0  0  0  0
   17.4920   -1.6780   15.9259 C   0  0  0  0  0  0  0  0  0  0  0  0
   16.8023   -0.4370   15.3109 C   0  0  0  0  0  0  0  0  0  0  0  0
   15.7296   -0.7538   14.2495 C   0  0  0  0  0  0  0  0  0  0  0  0
   14.4281   -1.3722   14.7091 C   0  0  0  0  0  0  0  0  0  0  0  0
   14.1212   -2.1776   15.7886 C   0  0  0  0  0  0  0  0  0  0  0  0
   12.7520   -2.5764   15.8197 C   0  0  0  0  0  0  0  0  0  0  0  0
   12.0440   -2.0726   14.7589 C   0  0  0  0  0  0  0  0  0  0  0  0
   13.0258   -1.1157   13.7401 S   0  0  0  0  0  0  0  0  0  0  0  0
   16.3197    0.5319   16.2687 N   0  0  0  0  0  0  0  0  0  0  0  0
   16.3521    2.0825   16.2363 C   0  0  0  0  0  0  0  0  0  0  0  0
   16.8421    2.8128   15.4679 O   0  0  0  0  0  0  0  0  0  0  0  0
   15.4815    2.6297   17.4051 C   0  0  0  0  0  0  0  0  0  0  0  0
   15.7073    1.9140   18.7499 C   0  0  0  0  0  0  0  0  0  0  0  0
   15.8786    4.1114   17.6348 C   0  0  0  0  0  0  0  0  0  0  0  0
   14.0065    2.5971   16.9639 C   0  0  0  0  0  0  0  0  0  0  0  0
   13.4138    1.2663   16.5581 C   0  0  0  0  0  0  0  0  0  0  0  0
   13.8203    3.4277   15.9001 F   0  0  0  0  0  0  0  0  0  0  0  0
   13.2329    3.0992   17.9713 F   0  0  0  0  0  0  0  0  0  0  0  0
   19.3012   -3.2301   17.6302 H   0  0  0  0  0  0  0  0  0  0  0  0
   18.2767   -3.6566   19.0156 H   0  0  0  0  0  0  0  0  0  0  0  0
   17.8168   -4.1973   17.3888 H   0  0  0  0  0  0  0  0  0  0  0  0
   17.1505   -2.5973   15.4385 H   0  0  0  0  0  0  0  0  0  0  0  0
   18.5681   -1.6009   15.7300 H   0  0  0  0  0  0  0  0  0  0  0  0
   17.5876    0.0944   14.7546 H   0  0  0  0  0  0  0  0  0  0  0  0
   15.5014    0.1846   13.7238 H   0  0  0  0  0  0  0  0  0  0  0  0
   16.1683   -1.4236   13.4974 H   0  0  0  0  0  0  0  0  0  0  0  0
   14.8331   -2.5066   16.5301 H   0  0  0  0  0  0  0  0  0  0  0  0
   12.3209   -3.2260   16.5716 H   0  0  0  0  0  0  0  0  0  0  0  0
   10.9999   -2.2244   14.5226 H   0  0  0  0  0  0  0  0  0  0  0  0
   15.8776    0.2210   17.1226 H   0  0  0  0  0  0  0  0  0  0  0  0
   15.3046    2.5021   19.5831 H   0  0  0  0  0  0  0  0  0  0  0  0
   15.2163    0.9387   18.8087 H   0  0  0  0  0  0  0  0  0  0  0  0
   16.7762    1.7608   18.9366 H   0  0  0  0  0  0  0  0  0  0  0  0
   15.2818    4.5672   18.4331 H   0  0  0  0  0  0  0  0  0  0  0  0
   15.7348    4.7184   16.7335 H   0  0  0  0  0  0  0  0  0  0  0  0
   16.9353    4.1932   17.9159 H   0  0  0  0  0  0  0  0  0  0  0  0
   13.8028    0.9933   15.5823 H   0  0  0  0  0  0  0  0  0  0  0  0
   12.3311    1.3707   16.4349 H   0  0  0  0  0  0  0  0  0  0  0  0
   13.5927    0.4778   17.2896 H   0  0  0  0  0  0  0  0  0  0  0  0
  1  2  1  0
  2  3  1  0
  3  4  1  0
  4  5  1  0
  5  6  1  0
  6  7  2  0
  7  8  1  0
  8  9  2  0
  9 10  1  0
  4 11  1  0
 11 12  1  0
 12 13  2  0
 12 14  1  0
 14 15  1  0
 14 16  1  0
 14 17  1  0
 17 18  1  0
 17 19  1  0
 17 20  1  0
 10  6  1  0
  1 21  1  0
  1 22  1  0
  1 23  1  0
  3 24  1  0
  3 25  1  0
  4 26  1  0
  5 27  1  0
  5 28  1  0
  7 29  1  0
  8 30  1  0
  9 31  1  0
 11 32  1  0
 15 33  1  0
 15 34  1  0
 15 35  1  0
 16 36  1  0
 16 37  1  0
 16 38  1  0
 18 39  1  0
 18 40  1  0
 18 41  1  0
M  END
>  <Energy>  (566) 
45.435730900752247

>  <compound_id>  (566) 
84632

>  <target_id>  (566) 
1

>  <reference_id>  (566) 
97

>  <inspiration_ids>  (566) 
[120, 97]

>  <energy_score>  (566) 
-37.90178321898068

>  <distance_score>  (566) 
3.0665466868262863

>  <path>  (566) 
/opt/xchem-fragalysis-2/maxwin/BulkDock/SCRATCH/511020/C84632-P97/C84632-P97.minimised.mol

>  <scratch_subdir>  (566) 
/opt/xchem-fragalysis-2/maxwin/BulkDock/SCRATCH/511020/C84632-P97

>  <fragmenstein_runtime>  (566) 
4.660542249679565

>  <fragmenstein_outcome>  (566) 
too moved

>  <fragmenstein_mode>  (566) 
expansion

>  <fragmenstein_error>  (566) 


$$$$
C84636-P120
     RDKit          3D

 22 22  0  0  0  0  0  0  0  0999 V2000
   17.7439   -0.6347   14.1347 C   0  0  0  0  0  0  0  0  0  0  0  0
   17.2110    0.5044   13.3312 N   0  0  0  0  0  0  0  0  0  0  0  0
   17.0803    1.9687   13.6693 C   0  0  0  0  0  0  0  0  0  0  0  0
   17.2940    2.5380   14.6719 O   0  0  0  0  0  0  0  0  0  0  0  0
   15.9062   -0.2484   13.6126 C   0  0  0  0  0  0  0  0  0  0  0  0
   15.0859    0.1676   14.8727 C   0  0  0  0  0  0  0  0  0  0  0  0
   13.9592   -0.7971   15.1174 C   0  0  0  0  0  0  0  0  0  0  0  0
   13.9146   -1.8479   16.0120 C   0  0  0  0  0  0  0  0  0  0  0  0
   12.6931   -2.5787   15.9377 C   0  0  0  0  0  0  0  0  0  0  0  0
   11.8432   -2.0608   14.9879 C   0  0  0  0  0  0  0  0  0  0  0  0
   12.5057   -0.6778   14.2227 S   0  0  0  0  0  0  0  0  0  0  0  0
   18.8084   -0.3732   14.2376 H   0  0  0  0  0  0  0  0  0  0  0  0
   17.4342   -0.7054   15.1848 H   0  0  0  0  0  0  0  0  0  0  0  0
   17.7794   -1.5907   13.5910 H   0  0  0  0  0  0  0  0  0  0  0  0
   16.6471    2.4385   12.7657 H   0  0  0  0  0  0  0  0  0  0  0  0
   15.2857    0.1224   12.7781 H   0  0  0  0  0  0  0  0  0  0  0  0
   15.8810   -1.3330   13.3929 H   0  0  0  0  0  0  0  0  0  0  0  0
   14.6832    1.1793   14.7369 H   0  0  0  0  0  0  0  0  0  0  0  0
   15.7085    0.2163   15.7719 H   0  0  0  0  0  0  0  0  0  0  0  0
   14.7277   -2.0940   16.6848 H   0  0  0  0  0  0  0  0  0  0  0  0
   12.4566   -3.4504   16.5371 H   0  0  0  0  0  0  0  0  0  0  0  0
   10.8630   -2.4192   14.7020 H   0  0  0  0  0  0  0  0  0  0  0  0
  1  2  1  0
  2  3  1  0
  3  4  2  0
  2  5  1  0
  5  6  1  0
  6  7  1  0
  7  8  2  0
  8  9  1  0
  9 10  2  0
 10 11  1  0
 11  7  1  0
  1 12  1  0
  1 13  1  0
  1 14  1  0
  3 15  1  0
  5 16  1  0
  5 17  1  0
  6 18  1  0
  6 19  1  0
  8 20  1  0
  9 21  1  0
 10 22  1  0
M  END
>  <Energy>  (567) 
83.999709126232631

>  <compound_id>  (567) 
84636

>  <target_id>  (567) 
1

>  <reference_id>  (567) 
120

>  <inspiration_ids>  (567) 
[120, 97]

>  <energy_score>  (567) 
58.25214128426056

>  <distance_score>  (567) 
2.8193964682912833

>  <path>  (567) 
/opt/xchem-fragalysis-2/maxwin/BulkDock/SCRATCH/511020/C84636-P120/C84636-P120.minimised.mol

>  <scratch_subdir>  (567) 
/opt/xchem-fragalysis-2/maxwin/BulkDock/SCRATCH/511020/C84636-P120

>  <fragmenstein_runtime>  (567) 
3.37343692779541

>  <fragmenstein_outcome>  (567) 
too moved

>  <fragmenstein_mode>  (567) 
expansion

>  <fragmenstein_error>  (567) 


$$$$
C84636-P97
     RDKit          3D

 22 22  0  0  0  0  0  0  0  0999 V2000
   16.4831   -1.6310   12.0200 C   0  0  0  0  0  0  0  0  0  0  0  0
   15.3559   -0.6789   12.2367 N   0  0  0  0  0  0  0  0  0  0  0  0
   15.0957    0.6856   11.6481 C   0  0  0  0  0  0  0  0  0  0  0  0
   15.7600    1.3478   10.9442 O   0  0  0  0  0  0  0  0  0  0  0  0
   16.0571   -0.5716   13.6083 C   0  0  0  0  0  0  0  0  0  0  0  0
   15.1105    0.0867   14.6611 C   0  0  0  0  0  0  0  0  0  0  0  0
   13.9748   -0.8297   15.0264 C   0  0  0  0  0  0  0  0  0  0  0  0
   13.9810   -1.8792   15.9247 C   0  0  0  0  0  0  0  0  0  0  0  0
   12.7460   -2.5897   15.9454 C   0  0  0  0  0  0  0  0  0  0  0  0
   11.8294   -2.0474   15.0751 C   0  0  0  0  0  0  0  0  0  0  0  0
   12.4441   -0.6591   14.2822 S   0  0  0  0  0  0  0  0  0  0  0  0
   16.3788   -1.8911   10.9557 H   0  0  0  0  0  0  0  0  0  0  0  0
   17.4967   -1.2014   12.0526 H   0  0  0  0  0  0  0  0  0  0  0  0
   16.3566   -2.5986   12.5260 H   0  0  0  0  0  0  0  0  0  0  0  0
   14.1171    1.0030   12.0531 H   0  0  0  0  0  0  0  0  0  0  0  0
   16.3550   -1.5161   14.0984 H   0  0  0  0  0  0  0  0  0  0  0  0
   16.9154    0.1161   13.5242 H   0  0  0  0  0  0  0  0  0  0  0  0
   14.7397    1.0563   14.3111 H   0  0  0  0  0  0  0  0  0  0  0  0
   15.6945    0.2924   15.5677 H   0  0  0  0  0  0  0  0  0  0  0  0
   14.8458   -2.1570   16.5156 H   0  0  0  0  0  0  0  0  0  0  0  0
   12.5511   -3.4692   16.5492 H   0  0  0  0  0  0  0  0  0  0  0  0
   10.8265   -2.3903   14.8601 H   0  0  0  0  0  0  0  0  0  0  0  0
  1  2  1  0
  2  3  1  0
  3  4  2  0
  2  5  1  0
  5  6  1  0
  6  7  1  0
  7  8  2  0
  8  9  1  0
  9 10  2  0
 10 11  1  0
 11  7  1  0
  1 12  1  0
  1 13  1  0
  1 14  1  0
  3 15  1  0
  5 16  1  0
  5 17  1  0
  6 18  1  0
  6 19  1  0
  8 20  1  0
  9 21  1  0
 10 22  1  0
M  END
>  <Energy>  (568) 
81.796881575258553

>  <compound_id>  (568) 
84636

>  <target_id>  (568) 
1

>  <reference_id>  (568) 
97

>  <inspiration_ids>  (568) 
[120, 97]

>  <energy_score>  (568) 
56.049313733287136

>  <distance_score>  (568) 
2.5374115101392833

>  <path>  (568) 
/opt/xchem-fragalysis-2/maxwin/BulkDock/SCRATCH/511020/C84636-P97/C84636-P97.minimised.mol

>  <scratch_subdir>  (568) 
/opt/xchem-fragalysis-2/maxwin/BulkDock/SCRATCH/511020/C84636-P97

>  <fragmenstein_runtime>  (568) 
3.7526843547821045

>  <fragmenstein_outcome>  (568) 
too moved

>  <fragmenstein_mode>  (568) 
expansion

>  <fragmenstein_error>  (568) 


$$$$
C84642-P120
     RDKit          3D

 40 40  0  0  0  0  0  0  0  0999 V2000
   17.3412    2.9400   10.4978 C   0  0  0  0  0  0  0  0  0  0  0  0
   16.6692    3.6043   11.7092 C   0  0  0  0  0  0  0  0  0  0  0  0
   16.2989    2.6945   12.8507 N   0  0  0  0  0  0  0  0  0  0  0  0
   14.9722    2.6197   12.0746 C   0  0  0  0  0  0  0  0  0  0  0  0
   13.8807    3.4665   12.7790 C   0  0  0  0  0  0  0  0  0  0  0  0
   12.7633    2.6407   13.3541 C   0  0  0  0  0  0  0  0  0  0  0  0
   12.4066    2.4830   14.6781 C   0  0  0  0  0  0  0  0  0  0  0  0
   11.3092    1.5898   14.8436 C   0  0  0  0  0  0  0  0  0  0  0  0
   10.8527    1.1054   13.6406 C   0  0  0  0  0  0  0  0  0  0  0  0
   11.7011    1.7833   12.3213 S   0  0  0  0  0  0  0  0  0  0  0  0
   16.7503    1.3756   13.1788 C   0  0  0  0  0  0  0  0  0  0  0  0
   17.4699    0.6247   12.5790 O   0  0  0  0  0  0  0  0  0  0  0  0
   16.1795    1.0277   14.5502 C   0  0  0  0  0  0  0  0  0  0  0  0
   15.8042   -0.4515   14.7091 C   0  0  0  0  0  0  0  0  0  0  0  0
   14.7102   -0.8729   13.7281 C   0  0  0  0  0  0  0  0  0  0  0  0
   15.4263   -0.7667   16.1658 C   0  0  0  0  0  0  0  0  0  0  0  0
   15.2974   -2.1236   16.2850 F   0  0  0  0  0  0  0  0  0  0  0  0
   16.4994   -0.4397   16.9481 F   0  0  0  0  0  0  0  0  0  0  0  0
   14.1751   -0.0841   16.7320 C   0  0  0  0  0  0  0  0  0  0  0  0
   13.9832   -0.3999   18.0385 F   0  0  0  0  0  0  0  0  0  0  0  0
   13.0466   -0.4570   16.0849 F   0  0  0  0  0  0  0  0  0  0  0  0
   14.2479    1.2675   16.6717 F   0  0  0  0  0  0  0  0  0  0  0  0
   17.6030    3.7025    9.7570 H   0  0  0  0  0  0  0  0  0  0  0  0
   18.2693    2.4415   10.7966 H   0  0  0  0  0  0  0  0  0  0  0  0
   16.7088    2.1939   10.0088 H   0  0  0  0  0  0  0  0  0  0  0  0
   17.4914    4.1778   12.1668 H   0  0  0  0  0  0  0  0  0  0  0  0
   15.9700    4.4229   11.4608 H   0  0  0  0  0  0  0  0  0  0  0  0
   14.9217    2.7456   10.9786 H   0  0  0  0  0  0  0  0  0  0  0  0
   14.6708    1.5649   12.1538 H   0  0  0  0  0  0  0  0  0  0  0  0
   13.4591    4.1747   12.0537 H   0  0  0  0  0  0  0  0  0  0  0  0
   14.3240    4.0796   13.5740 H   0  0  0  0  0  0  0  0  0  0  0  0
   12.9180    2.9748   15.4983 H   0  0  0  0  0  0  0  0  0  0  0  0
   10.8848    1.3074   15.7980 H   0  0  0  0  0  0  0  0  0  0  0  0
   10.0437    0.4060   13.4716 H   0  0  0  0  0  0  0  0  0  0  0  0
   15.3112    1.6591   14.7518 H   0  0  0  0  0  0  0  0  0  0  0  0
   16.9501    1.3017   15.2814 H   0  0  0  0  0  0  0  0  0  0  0  0
   16.6914   -1.0556   14.4758 H   0  0  0  0  0  0  0  0  0  0  0  0
   15.0602   -0.8104   12.6928 H   0  0  0  0  0  0  0  0  0  0  0  0
   14.4095   -1.9108   13.9039 H   0  0  0  0  0  0  0  0  0  0  0  0
   13.8214   -0.2459   13.8183 H   0  0  0  0  0  0  0  0  0  0  0  0
  1  2  1  0
  2  3  1  0
  3  4  1  0
  4  5  1  0
  5  6  1  0
  6  7  2  0
  7  8  1  0
  8  9  2  0
  9 10  1  0
  3 11  1  0
 11 12  2  0
 11 13  1  0
 13 14  1  0
 14 15  1  0
 14 16  1  0
 16 17  1  0
 16 18  1  0
 16 19  1  0
 19 20  1  0
 19 21  1  0
 19 22  1  0
 10  6  1  0
  1 23  1  0
  1 24  1  0
  1 25  1  0
  2 26  1  0
  2 27  1  0
  4 28  1  0
  4 29  1  0
  5 30  1  0
  5 31  1  0
  7 32  1  0
  8 33  1  0
  9 34  1  0
 13 35  1  0
 13 36  1  0
 14 37  1  0
 15 38  1  0
 15 39  1  0
 15 40  1  0
M  END
>  <Energy>  (569) 
138.12986907018572

>  <compound_id>  (569) 
84642

>  <target_id>  (569) 
1

>  <reference_id>  (569) 
120

>  <inspiration_ids>  (569) 
[120, 97]

>  <energy_score>  (569) 
44.589034734767296

>  <distance_score>  (569) 
3.551877575465559

>  <path>  (569) 
/opt/xchem-fragalysis-2/maxwin/BulkDock/SCRATCH/511020/C84642-P120/C84642-P120.minimised.mol

>  <scratch_subdir>  (569) 
/opt/xchem-fragalysis-2/maxwin/BulkDock/SCRATCH/511020/C84642-P120

>  <fragmenstein_runtime>  (569) 
6.1178648471832275

>  <fragmenstein_outcome>  (569) 
too moved

>  <fragmenstein_mode>  (569) 
expansion

>  <fragmenstein_error>  (569) 


$$$$
C84642-P97
     RDKit          3D

 40 40  0  0  0  0  0  0  0  0999 V2000
   17.4836    5.3106   13.5520 C   0  0  0  0  0  0  0  0  0  0  0  0
   16.0834    4.7787   13.9031 C   0  0  0  0  0  0  0  0  0  0  0  0
   16.2694    3.3587   14.3737 N   0  0  0  0  0  0  0  0  0  0  0  0
   14.7594    3.4761   14.6243 C   0  0  0  0  0  0  0  0  0  0  0  0
   13.7290    3.3478   13.4656 C   0  0  0  0  0  0  0  0  0  0  0  0
   12.4549    2.6601   13.8982 C   0  0  0  0  0  0  0  0  0  0  0  0
   11.7633    2.7525   15.0923 C   0  0  0  0  0  0  0  0  0  0  0  0
   10.6283    1.8900   15.1349 C   0  0  0  0  0  0  0  0  0  0  0  0
   10.4741    1.1849   13.9647 C   0  0  0  0  0  0  0  0  0  0  0  0
   11.6573    1.6037   12.8072 S   0  0  0  0  0  0  0  0  0  0  0  0
   16.5552    2.1633   13.6429 C   0  0  0  0  0  0  0  0  0  0  0  0
   16.6305    1.9710   12.4592 O   0  0  0  0  0  0  0  0  0  0  0  0
   16.8744    1.0374   14.6361 C   0  0  0  0  0  0  0  0  0  0  0  0
   16.1086   -0.2956   14.4636 C   0  0  0  0  0  0  0  0  0  0  0  0
   15.0708   -0.3255   13.3423 C   0  0  0  0  0  0  0  0  0  0  0  0
   15.5127   -0.8171   15.7874 C   0  0  0  0  0  0  0  0  0  0  0  0
   15.0209   -2.0735   15.5516 F   0  0  0  0  0  0  0  0  0  0  0  0
   16.5430   -0.9989   16.6669 F   0  0  0  0  0  0  0  0  0  0  0  0
   14.4298    0.0282   16.4637 C   0  0  0  0  0  0  0  0  0  0  0  0
   14.9029    1.2157   16.9121 F   0  0  0  0  0  0  0  0  0  0  0  0
   13.9058   -0.5989   17.5474 F   0  0  0  0  0  0  0  0  0  0  0  0
   13.3984    0.3041   15.6390 F   0  0  0  0  0  0  0  0  0  0  0  0
   18.1429    5.2780   14.4260 H   0  0  0  0  0  0  0  0  0  0  0  0
   17.9458    4.7125   12.7594 H   0  0  0  0  0  0  0  0  0  0  0  0
   17.4202    6.3471   13.2058 H   0  0  0  0  0  0  0  0  0  0  0  0
   15.7227    5.4775   14.6724 H   0  0  0  0  0  0  0  0  0  0  0  0
   15.5383    4.8494   12.9537 H   0  0  0  0  0  0  0  0  0  0  0  0
   14.5977    2.5642   15.2088 H   0  0  0  0  0  0  0  0  0  0  0  0
   14.4761    4.2341   15.3753 H   0  0  0  0  0  0  0  0  0  0  0  0
   14.1704    2.8148   12.6172 H   0  0  0  0  0  0  0  0  0  0  0  0
   13.4553    4.3465   13.1024 H   0  0  0  0  0  0  0  0  0  0  0  0
   12.0623    3.3909   15.9151 H   0  0  0  0  0  0  0  0  0  0  0  0
    9.9580    1.7994   15.9798 H   0  0  0  0  0  0  0  0  0  0  0  0
    9.7087    0.4621   13.7173 H   0  0  0  0  0  0  0  0  0  0  0  0
   16.7954    1.4094   15.6625 H   0  0  0  0  0  0  0  0  0  0  0  0
   17.9474    0.8349   14.5076 H   0  0  0  0  0  0  0  0  0  0  0  0
   16.8654   -1.0422   14.1813 H   0  0  0  0  0  0  0  0  0  0  0  0
   14.3462    0.4783   13.4472 H   0  0  0  0  0  0  0  0  0  0  0  0
   15.5463   -0.2401   12.3604 H   0  0  0  0  0  0  0  0  0  0  0  0
   14.5201   -1.2725   13.3373 H   0  0  0  0  0  0  0  0  0  0  0  0
  1  2  1  0
  2  3  1  0
  3  4  1  0
  4  5  1  0
  5  6  1  0
  6  7  2  0
  7  8  1  0
  8  9  2  0
  9 10  1  0
  3 11  1  0
 11 12  2  0
 11 13  1  0
 13 14  1  0
 14 15  1  0
 14 16  1  0
 16 17  1  0
 16 18  1  0
 16 19  1  0
 19 20  1  0
 19 21  1  0
 19 22  1  0
 10  6  1  0
  1 23  1  0
  1 24  1  0
  1 25  1  0
  2 26  1  0
  2 27  1  0
  4 28  1  0
  4 29  1  0
  5 30  1  0
  5 31  1  0
  7 32  1  0
  8 33  1  0
  9 34  1  0
 13 35  1  0
 13 36  1  0
 14 37  1  0
 15 38  1  0
 15 39  1  0
 15 40  1  0
M  END
>  <Energy>  (570) 
141.16687383811274

>  <compound_id>  (570) 
84642

>  <target_id>  (570) 
1

>  <reference_id>  (570) 
97

>  <inspiration_ids>  (570) 
[120, 97]

>  <energy_score>  (570) 
47.62603950269346

>  <distance_score>  (570) 
3.8181913834788284

>  <path>  (570) 
/opt/xchem-fragalysis-2/maxwin/BulkDock/SCRATCH/511020/C84642-P97/C84642-P97.minimised.mol

>  <scratch_subdir>  (570) 
/opt/xchem-fragalysis-2/maxwin/BulkDock/SCRATCH/511020/C84642-P97

>  <fragmenstein_runtime>  (570) 
6.579771995544434

>  <fragmenstein_outcome>  (570) 
too moved

>  <fragmenstein_mode>  (570) 
expansion

>  <fragmenstein_error>  (570) 


$$$$
C84644-P120
     RDKit          3D

 46 46  0  0  0  0  0  0  0  0999 V2000
   17.0459    0.1029   19.2829 C   0  0  0  0  0  0  0  0  0  0  0  0
   15.8903   -0.7705   18.8203 C   0  0  0  0  0  0  0  0  0  0  0  0
   14.6872    0.0263   18.3110 C   0  0  0  0  0  0  0  0  0  0  0  0
   14.9814    0.8352   17.0400 C   0  0  0  0  0  0  0  0  0  0  0  0
   13.7105    1.4808   16.4988 C   0  0  0  0  0  0  0  0  0  0  0  0
   13.9041    2.5529   15.4008 C   0  0  0  0  0  0  0  0  0  0  0  0
   14.7107    3.7130   15.9531 C   0  0  0  0  0  0  0  0  0  0  0  0
   12.5032    3.0909   15.0691 C   0  0  0  0  0  0  0  0  0  0  0  0
   14.5147    2.0033   14.0722 C   0  0  0  0  0  0  0  0  0  0  0  0
   13.8871    1.9176   13.0920 O   0  0  0  0  0  0  0  0  0  0  0  0
   15.9619    1.5480   14.3791 N   0  0  0  0  0  0  0  0  0  0  0  0
   16.8918    0.8164   13.5820 C   0  0  0  0  0  0  0  0  0  0  0  0
   16.7080   -0.6769   13.8583 C   0  0  0  0  0  0  0  0  0  0  0  0
   15.3851   -1.2143   13.3044 C   0  0  0  0  0  0  0  0  0  0  0  0
   14.2761   -1.5212   14.2755 C   0  0  0  0  0  0  0  0  0  0  0  0
   14.3040   -2.2410   15.4545 C   0  0  0  0  0  0  0  0  0  0  0  0
   12.9969   -2.5203   15.9620 C   0  0  0  0  0  0  0  0  0  0  0  0
   12.0097   -2.0007   15.1611 C   0  0  0  0  0  0  0  0  0  0  0  0
   12.6622   -1.1233   13.8525 S   0  0  0  0  0  0  0  0  0  0  0  0
   17.4926    0.6517   18.4486 H   0  0  0  0  0  0  0  0  0  0  0  0
   17.8304   -0.5176   19.7279 H   0  0  0  0  0  0  0  0  0  0  0  0
   16.7164    0.8247   20.0368 H   0  0  0  0  0  0  0  0  0  0  0  0
   16.2426   -1.4559   18.0412 H   0  0  0  0  0  0  0  0  0  0  0  0
   15.5627   -1.3910   19.6630 H   0  0  0  0  0  0  0  0  0  0  0  0
   14.3336    0.6980   19.1024 H   0  0  0  0  0  0  0  0  0  0  0  0
   13.8755   -0.6771   18.1055 H   0  0  0  0  0  0  0  0  0  0  0  0
   15.7225    1.5939   17.3021 H   0  0  0  0  0  0  0  0  0  0  0  0
   15.4217    0.1581   16.3137 H   0  0  0  0  0  0  0  0  0  0  0  0
   13.0414    0.6955   16.1381 H   0  0  0  0  0  0  0  0  0  0  0  0
   13.1815    1.9459   17.3430 H   0  0  0  0  0  0  0  0  0  0  0  0
   15.7264    3.4643   16.2681 H   0  0  0  0  0  0  0  0  0  0  0  0
   14.8171    4.5010   15.1969 H   0  0  0  0  0  0  0  0  0  0  0  0
   14.2163    4.1653   16.8214 H   0  0  0  0  0  0  0  0  0  0  0  0
   12.5453    3.8725   14.3008 H   0  0  0  0  0  0  0  0  0  0  0  0
   12.0163    3.5248   15.9506 H   0  0  0  0  0  0  0  0  0  0  0  0
   11.8463    2.2987   14.6901 H   0  0  0  0  0  0  0  0  0  0  0  0
   16.2206    1.8505   15.3035 H   0  0  0  0  0  0  0  0  0  0  0  0
   16.7200    1.0510   12.5271 H   0  0  0  0  0  0  0  0  0  0  0  0
   17.8995    1.1372   13.8616 H   0  0  0  0  0  0  0  0  0  0  0  0
   16.8309   -0.9004   14.9231 H   0  0  0  0  0  0  0  0  0  0  0  0
   17.5244   -1.1949   13.3382 H   0  0  0  0  0  0  0  0  0  0  0  0
   15.6122   -2.1759   12.8199 H   0  0  0  0  0  0  0  0  0  0  0  0
   15.0258   -0.5746   12.4886 H   0  0  0  0  0  0  0  0  0  0  0  0
   15.2173   -2.6167   15.8991 H   0  0  0  0  0  0  0  0  0  0  0  0
   12.7969   -3.1090   16.8490 H   0  0  0  0  0  0  0  0  0  0  0  0
   10.9374   -2.0812   15.2699 H   0  0  0  0  0  0  0  0  0  0  0  0
  1  2  1  0
  2  3  1  0
  3  4  1  0
  4  5  1  0
  5  6  1  0
  6  7  1  0
  6  8  1  0
  6  9  1  0
  9 10  2  0
  9 11  1  0
 11 12  1  0
 12 13  1  0
 13 14  1  0
 14 15  1  0
 15 16  2  0
 16 17  1  0
 17 18  2  0
 18 19  1  0
 19 15  1  0
  1 20  1  0
  1 21  1  0
  1 22  1  0
  2 23  1  0
  2 24  1  0
  3 25  1  0
  3 26  1  0
  4 27  1  0
  4 28  1  0
  5 29  1  0
  5 30  1  0
  7 31  1  0
  7 32  1  0
  7 33  1  0
  8 34  1  0
  8 35  1  0
  8 36  1  0
 11 37  1  0
 12 38  1  0
 12 39  1  0
 13 40  1  0
 13 41  1  0
 14 42  1  0
 14 43  1  0
 16 44  1  0
 17 45  1  0
 18 46  1  0
M  END
>  <Energy>  (571) 
23.45553466811285

>  <compound_id>  (571) 
84644

>  <target_id>  (571) 
1

>  <reference_id>  (571) 
120

>  <inspiration_ids>  (571) 
[120, 97]

>  <energy_score>  (571) 
-18.217176497269975

>  <distance_score>  (571) 
3.136952256885312

>  <path>  (571) 
/opt/xchem-fragalysis-2/maxwin/BulkDock/SCRATCH/511020/C84644-P120/C84644-P120.minimised.mol

>  <scratch_subdir>  (571) 
/opt/xchem-fragalysis-2/maxwin/BulkDock/SCRATCH/511020/C84644-P120

>  <fragmenstein_runtime>  (571) 
7.468867778778076

>  <fragmenstein_outcome>  (571) 
too moved

>  <fragmenstein_mode>  (571) 
expansion

>  <fragmenstein_error>  (571) 


$$$$
C84644-P97
     RDKit          3D

 46 46  0  0  0  0  0  0  0  0999 V2000
   17.3307    1.8243   10.5501 C   0  0  0  0  0  0  0  0  0  0  0  0
   16.1833    2.6560   11.1013 C   0  0  0  0  0  0  0  0  0  0  0  0
   15.5100    1.9603   12.2850 C   0  0  0  0  0  0  0  0  0  0  0  0
   14.3554    2.7943   12.8393 C   0  0  0  0  0  0  0  0  0  0  0  0
   13.5745    2.1093   13.9726 C   0  0  0  0  0  0  0  0  0  0  0  0
   13.9039    2.5616   15.4216 C   0  0  0  0  0  0  0  0  0  0  0  0
   13.1449    1.6661   16.4261 C   0  0  0  0  0  0  0  0  0  0  0  0
   13.4049    3.9930   15.6377 C   0  0  0  0  0  0  0  0  0  0  0  0
   15.4374    2.5424   15.6758 C   0  0  0  0  0  0  0  0  0  0  0  0
   16.0796    3.5094   15.7727 O   0  0  0  0  0  0  0  0  0  0  0  0
   15.8603    1.0603   15.6564 N   0  0  0  0  0  0  0  0  0  0  0  0
   17.1579    0.4666   15.6569 C   0  0  0  0  0  0  0  0  0  0  0  0
   17.1004   -1.0171   15.3281 C   0  0  0  0  0  0  0  0  0  0  0  0
   16.1197   -1.3978   14.2145 C   0  0  0  0  0  0  0  0  0  0  0  0
   14.6763   -1.6511   14.5887 C   0  0  0  0  0  0  0  0  0  0  0  0
   13.5841   -1.5910   13.7449 C   0  0  0  0  0  0  0  0  0  0  0  0
   12.3755   -2.0162   14.3641 C   0  0  0  0  0  0  0  0  0  0  0  0
   12.5769   -2.4142   15.6612 C   0  0  0  0  0  0  0  0  0  0  0  0
   14.1938   -2.1745   16.1419 S   0  0  0  0  0  0  0  0  0  0  0  0
   16.9758    0.8494   10.2007 H   0  0  0  0  0  0  0  0  0  0  0  0
   18.0966    1.6574   11.3143 H   0  0  0  0  0  0  0  0  0  0  0  0
   17.7997    2.3381    9.7052 H   0  0  0  0  0  0  0  0  0  0  0  0
   16.5653    3.6352   11.4129 H   0  0  0  0  0  0  0  0  0  0  0  0
   15.4508    2.8308   10.3048 H   0  0  0  0  0  0  0  0  0  0  0  0
   16.2565    1.7867   13.0637 H   0  0  0  0  0  0  0  0  0  0  0  0
   15.1335    0.9827   11.9620 H   0  0  0  0  0  0  0  0  0  0  0  0
   14.7199    3.7809   13.1421 H   0  0  0  0  0  0  0  0  0  0  0  0
   13.6508    2.9728   12.0160 H   0  0  0  0  0  0  0  0  0  0  0  0
   12.5044    2.2911   13.7997 H   0  0  0  0  0  0  0  0  0  0  0  0
   13.6993    1.0308   13.8777 H   0  0  0  0  0  0  0  0  0  0  0  0
   13.5727    1.7520   17.4310 H   0  0  0  0  0  0  0  0  0  0  0  0
   12.0898    1.9583   16.4854 H   0  0  0  0  0  0  0  0  0  0  0  0
   13.1450    0.6132   16.1471 H   0  0  0  0  0  0  0  0  0  0  0  0
   13.9156    4.7173   14.9945 H   0  0  0  0  0  0  0  0  0  0  0  0
   13.5734    4.3161   16.6724 H   0  0  0  0  0  0  0  0  0  0  0  0
   12.3308    4.0802   15.4366 H   0  0  0  0  0  0  0  0  0  0  0  0
   15.0380    0.4756   15.6416 H   0  0  0  0  0  0  0  0  0  0  0  0
   17.7625    1.0052   14.9195 H   0  0  0  0  0  0  0  0  0  0  0  0
   17.6160    0.6375   16.6361 H   0  0  0  0  0  0  0  0  0  0  0  0
   16.9035   -1.5850   16.2436 H   0  0  0  0  0  0  0  0  0  0  0  0
   18.1102   -1.3170   15.0182 H   0  0  0  0  0  0  0  0  0  0  0  0
   16.4798   -2.3388   13.7743 H   0  0  0  0  0  0  0  0  0  0  0  0
   16.1694   -0.6603   13.4063 H   0  0  0  0  0  0  0  0  0  0  0  0
   13.6579   -1.2945   12.7053 H   0  0  0  0  0  0  0  0  0  0  0  0
   11.4187   -2.0793   13.8672 H   0  0  0  0  0  0  0  0  0  0  0  0
   11.8574   -2.8355   16.3459 H   0  0  0  0  0  0  0  0  0  0  0  0
  1  2  1  0
  2  3  1  0
  3  4  1  0
  4  5  1  0
  5  6  1  0
  6  7  1  0
  6  8  1  0
  6  9  1  0
  9 10  2  0
  9 11  1  0
 11 12  1  0
 12 13  1  0
 13 14  1  0
 14 15  1  0
 15 16  2  0
 16 17  1  0
 17 18  2  0
 18 19  1  0
 19 15  1  0
  1 20  1  0
  1 21  1  0
  1 22  1  0
  2 23  1  0
  2 24  1  0
  3 25  1  0
  3 26  1  0
  4 27  1  0
  4 28  1  0
  5 29  1  0
  5 30  1  0
  7 31  1  0
  7 32  1  0
  7 33  1  0
  8 34  1  0
  8 35  1  0
  8 36  1  0
 11 37  1  0
 12 38  1  0
 12 39  1  0
 13 40  1  0
 13 41  1  0
 14 42  1  0
 14 43  1  0
 16 44  1  0
 17 45  1  0
 18 46  1  0
M  END
>  <Energy>  (572) 
21.991130475056799

>  <compound_id>  (572) 
84644

>  <target_id>  (572) 
1

>  <reference_id>  (572) 
97

>  <inspiration_ids>  (572) 
[120, 97]

>  <energy_score>  (572) 
-19.681580690326058

>  <distance_score>  (572) 
2.8100791030548025

>  <path>  (572) 
/opt/xchem-fragalysis-2/maxwin/BulkDock/SCRATCH/511020/C84644-P97/C84644-P97.minimised.mol

>  <scratch_subdir>  (572) 
/opt/xchem-fragalysis-2/maxwin/BulkDock/SCRATCH/511020/C84644-P97

>  <fragmenstein_runtime>  (572) 
8.489387512207031

>  <fragmenstein_outcome>  (572) 
too moved

>  <fragmenstein_mode>  (572) 
expansion

>  <fragmenstein_error>  (572) 


$$$$
C84645-P120
     RDKit          3D

 31 31  0  0  0  0  0  0  0  0999 V2000
   16.6498   -1.8289   12.5060 C   0  0  0  0  0  0  0  0  0  0  0  0
   17.4023   -1.5687   13.8054 C   0  0  0  0  0  0  0  0  0  0  0  0
   18.3940   -0.4173   13.6277 C   0  0  0  0  0  0  0  0  0  0  0  0
   16.4823   -1.4011   15.0296 C   0  0  0  0  0  0  0  0  0  0  0  0
   15.4513   -0.2950   14.8934 C   0  0  0  0  0  0  0  0  0  0  0  0
   15.9181    0.9176   14.8717 N   0  0  0  0  0  0  0  0  0  0  0  0
   15.1976    1.8886   14.3063 N   0  0  0  0  0  0  0  0  0  0  0  0
   14.2390    1.8544   13.0522 C   0  0  0  0  0  0  0  0  0  0  0  0
   13.8878    0.9513   12.3877 O   0  0  0  0  0  0  0  0  0  0  0  0
   13.9151    3.3121   12.7879 C   0  0  0  0  0  0  0  0  0  0  0  0
   14.9019    3.8518   12.0295 F   0  0  0  0  0  0  0  0  0  0  0  0
   12.7386    3.5334   12.1505 F   0  0  0  0  0  0  0  0  0  0  0  0
   13.8940    4.0409   13.9391 F   0  0  0  0  0  0  0  0  0  0  0  0
   14.0436   -0.6506   14.9315 C   0  0  0  0  0  0  0  0  0  0  0  0
   13.0710   -0.1687   15.7842 C   0  0  0  0  0  0  0  0  0  0  0  0
   11.8145   -0.8143   15.5914 C   0  0  0  0  0  0  0  0  0  0  0  0
   11.8719   -1.7860   14.6227 C   0  0  0  0  0  0  0  0  0  0  0  0
   13.3947   -1.8068   13.8657 S   0  0  0  0  0  0  0  0  0  0  0  0
   17.3506   -2.0641   11.6973 H   0  0  0  0  0  0  0  0  0  0  0  0
   15.9736   -2.6795   12.6070 H   0  0  0  0  0  0  0  0  0  0  0  0
   16.0691   -0.9564   12.1913 H   0  0  0  0  0  0  0  0  0  0  0  0
   18.0068   -2.4640   14.0070 H   0  0  0  0  0  0  0  0  0  0  0  0
   17.9082    0.4925   13.2634 H   0  0  0  0  0  0  0  0  0  0  0  0
   19.1621   -0.6883   12.8945 H   0  0  0  0  0  0  0  0  0  0  0  0
   18.9029   -0.1871   14.5693 H   0  0  0  0  0  0  0  0  0  0  0  0
   17.0898   -1.1825   15.9174 H   0  0  0  0  0  0  0  0  0  0  0  0
   15.9804   -2.3544   15.2339 H   0  0  0  0  0  0  0  0  0  0  0  0
   15.2212    2.8331   14.6936 H   0  0  0  0  0  0  0  0  0  0  0  0
   13.2586    0.5977   16.5265 H   0  0  0  0  0  0  0  0  0  0  0  0
   10.9117   -0.5880   16.1389 H   0  0  0  0  0  0  0  0  0  0  0  0
   11.0782   -2.4379   14.2846 H   0  0  0  0  0  0  0  0  0  0  0  0
  1  2  1  0
  2  3  1  0
  2  4  1  0
  4  5  1  0
  5  6  2  3
  6  7  1  0
  7  8  1  0
  8  9  2  0
  8 10  1  0
 10 11  1  0
 10 12  1  0
 10 13  1  0
  5 14  1  0
 14 15  2  0
 15 16  1  0
 16 17  2  0
 17 18  1  0
 18 14  1  0
  1 19  1  0
  1 20  1  0
  1 21  1  0
  2 22  1  0
  3 23  1  0
  3 24  1  0
  3 25  1  0
  4 26  1  0
  4 27  1  0
  7 28  1  0
 15 29  1  0
 16 30  1  0
 17 31  1  0
M  END
>  <Energy>  (573) 
171.38931155016132

>  <compound_id>  (573) 
84645

>  <target_id>  (573) 
1

>  <reference_id>  (573) 
120

>  <inspiration_ids>  (573) 
[120, 97]

>  <energy_score>  (573) 
-33.33526191442587

>  <distance_score>  (573) 
1.9656197456030897

>  <path>  (573) 
/opt/xchem-fragalysis-2/maxwin/BulkDock/SCRATCH/511020/C84645-P120/C84645-P120.minimised.mol

>  <scratch_subdir>  (573) 
/opt/xchem-fragalysis-2/maxwin/BulkDock/SCRATCH/511020/C84645-P120

>  <fragmenstein_runtime>  (573) 
5.972494840621948

>  <fragmenstein_outcome>  (573) 
too moved

>  <fragmenstein_mode>  (573) 
expansion

>  <fragmenstein_error>  (573) 


$$$$
C84645-P97
     RDKit          3D

 31 31  0  0  0  0  0  0  0  0999 V2000
   16.6479   -2.1687   12.7521 C   0  0  0  0  0  0  0  0  0  0  0  0
   17.6004   -1.6717   13.8364 C   0  0  0  0  0  0  0  0  0  0  0  0
   18.5556   -0.6187   13.2703 C   0  0  0  0  0  0  0  0  0  0  0  0
   16.8855   -1.2132   15.1253 C   0  0  0  0  0  0  0  0  0  0  0  0
   15.7014   -0.3007   14.8433 C   0  0  0  0  0  0  0  0  0  0  0  0
   16.0397    0.8577   14.3661 N   0  0  0  0  0  0  0  0  0  0  0  0
   15.1248    1.7408   14.0039 N   0  0  0  0  0  0  0  0  0  0  0  0
   13.8696    2.2895   14.7821 C   0  0  0  0  0  0  0  0  0  0  0  0
   13.4255    1.9789   15.8238 O   0  0  0  0  0  0  0  0  0  0  0  0
   13.3166    3.3245   13.8060 C   0  0  0  0  0  0  0  0  0  0  0  0
   13.5316    2.9124   12.5180 F   0  0  0  0  0  0  0  0  0  0  0  0
   11.9925    3.5860   13.9305 F   0  0  0  0  0  0  0  0  0  0  0  0
   13.9844    4.5023   13.9107 F   0  0  0  0  0  0  0  0  0  0  0  0
   14.3796   -0.8897   15.0172 C   0  0  0  0  0  0  0  0  0  0  0  0
   13.9348   -1.6488   16.0856 C   0  0  0  0  0  0  0  0  0  0  0  0
   12.6689   -2.2539   15.8469 C   0  0  0  0  0  0  0  0  0  0  0  0
   12.1607   -1.9104   14.6196 C   0  0  0  0  0  0  0  0  0  0  0  0
   13.2116   -0.8656   13.7633 S   0  0  0  0  0  0  0  0  0  0  0  0
   16.1009   -1.3461   12.2806 H   0  0  0  0  0  0  0  0  0  0  0  0
   17.2042   -2.6833   11.9611 H   0  0  0  0  0  0  0  0  0  0  0  0
   15.9229   -2.8731   13.1660 H   0  0  0  0  0  0  0  0  0  0  0  0
   18.2275   -2.5251   14.1299 H   0  0  0  0  0  0  0  0  0  0  0  0
   18.0233    0.2327   12.8368 H   0  0  0  0  0  0  0  0  0  0  0  0
   19.1731   -1.0539   12.4766 H   0  0  0  0  0  0  0  0  0  0  0  0
   19.2309   -0.2441   14.0464 H   0  0  0  0  0  0  0  0  0  0  0  0
   17.5865   -0.6843   15.7826 H   0  0  0  0  0  0  0  0  0  0  0  0
   16.5559   -2.1029   15.6729 H   0  0  0  0  0  0  0  0  0  0  0  0
   15.2731    2.2952   13.1593 H   0  0  0  0  0  0  0  0  0  0  0  0
   14.5151   -1.8060   16.9875 H   0  0  0  0  0  0  0  0  0  0  0  0
   12.1696   -2.9251   16.5341 H   0  0  0  0  0  0  0  0  0  0  0  0
   11.2277   -2.2293   14.1788 H   0  0  0  0  0  0  0  0  0  0  0  0
  1  2  1  0
  2  3  1  0
  2  4  1  0
  4  5  1  0
  5  6  2  3
  6  7  1  0
  7  8  1  0
  8  9  2  0
  8 10  1  0
 10 11  1  0
 10 12  1  0
 10 13  1  0
  5 14  1  0
 14 15  2  0
 15 16  1  0
 16 17  2  0
 17 18  1  0
 18 14  1  0
  1 19  1  0
  1 20  1  0
  1 21  1  0
  2 22  1  0
  3 23  1  0
  3 24  1  0
  3 25  1  0
  4 26  1  0
  4 27  1  0
  7 28  1  0
 15 29  1  0
 16 30  1  0
 17 31  1  0
M  END
>  <Energy>  (574) 
170.31758524131334

>  <compound_id>  (574) 
84645

>  <target_id>  (574) 
1

>  <reference_id>  (574) 
97

>  <inspiration_ids>  (574) 
[120, 97]

>  <energy_score>  (574) 
-34.406988223274595

>  <distance_score>  (574) 
1.6626230489402398

>  <path>  (574) 
/opt/xchem-fragalysis-2/maxwin/BulkDock/SCRATCH/511020/C84645-P97/C84645-P97.minimised.mol

>  <scratch_subdir>  (574) 
/opt/xchem-fragalysis-2/maxwin/BulkDock/SCRATCH/511020/C84645-P97

>  <fragmenstein_runtime>  (574) 
5.960968017578125

>  <fragmenstein_outcome>  (574) 
too moved

>  <fragmenstein_mode>  (574) 
expansion

>  <fragmenstein_error>  (574) 


$$$$
C84646-P120
     RDKit          3D

 33 33  0  0  0  0  0  0  0  0999 V2000
   12.5630   -3.6110   16.5566 C   0  0  0  0  0  0  0  0  0  0  0  0
   13.5280   -3.3744   17.2253 C   0  0  0  0  0  0  0  0  0  0  0  0
   14.6729   -3.1367   18.1187 C   0  0  0  0  0  0  0  0  0  0  0  0
   15.1038   -1.6761   18.1349 C   0  0  0  0  0  0  0  0  0  0  0  0
   16.1297   -1.3423   17.0549 C   0  0  0  0  0  0  0  0  0  0  0  0
   16.5763   -2.1215   16.2952 O   0  0  0  0  0  0  0  0  0  0  0  0
   16.4729    0.1273   17.2767 N   0  0  0  0  0  0  0  0  0  0  0  0
   17.5534    0.9892   16.6620 C   0  0  0  0  0  0  0  0  0  0  0  0
   18.8948    0.4307   17.1716 C   0  0  0  0  0  0  0  0  0  0  0  0
   15.6055    1.0410   16.3925 C   0  0  0  0  0  0  0  0  0  0  0  0
   15.3482    0.6277   14.9094 C   0  0  0  0  0  0  0  0  0  0  0  0
   14.0608   -0.1147   14.6796 C   0  0  0  0  0  0  0  0  0  0  0  0
   13.9039   -1.4094   14.2294 C   0  0  0  0  0  0  0  0  0  0  0  0
   12.5361   -1.7603   14.0540 C   0  0  0  0  0  0  0  0  0  0  0  0
   11.6896   -0.7543   14.4499 C   0  0  0  0  0  0  0  0  0  0  0  0
   12.5463    0.6580   14.8815 S   0  0  0  0  0  0  0  0  0  0  0  0
   11.6964   -3.8578   15.9879 H   0  0  0  0  0  0  0  0  0  0  0  0
   14.3652   -3.4171   19.1340 H   0  0  0  0  0  0  0  0  0  0  0  0
   15.5038   -3.7991   17.8527 H   0  0  0  0  0  0  0  0  0  0  0  0
   14.2397   -1.0099   18.0427 H   0  0  0  0  0  0  0  0  0  0  0  0
   15.5881   -1.4712   19.0983 H   0  0  0  0  0  0  0  0  0  0  0  0
   17.6584    0.9330   15.5716 H   0  0  0  0  0  0  0  0  0  0  0  0
   17.5420    2.0207   17.0479 H   0  0  0  0  0  0  0  0  0  0  0  0
   18.9301    0.4370   18.2663 H   0  0  0  0  0  0  0  0  0  0  0  0
   19.7253    1.0375   16.7970 H   0  0  0  0  0  0  0  0  0  0  0  0
   19.0453   -0.6005   16.8353 H   0  0  0  0  0  0  0  0  0  0  0  0
   15.7485    2.1321   16.4986 H   0  0  0  0  0  0  0  0  0  0  0  0
   14.6365    0.9430   16.9051 H   0  0  0  0  0  0  0  0  0  0  0  0
   16.1707    0.0266   14.5048 H   0  0  0  0  0  0  0  0  0  0  0  0
   15.3205    1.5438   14.3041 H   0  0  0  0  0  0  0  0  0  0  0  0
   14.7366   -2.0705   14.0125 H   0  0  0  0  0  0  0  0  0  0  0  0
   12.1815   -2.7137   13.6830 H   0  0  0  0  0  0  0  0  0  0  0  0
   10.6080   -0.7589   14.4425 H   0  0  0  0  0  0  0  0  0  0  0  0
  1  2  3  0
  2  3  1  0
  3  4  1  0
  4  5  1  0
  5  6  2  0
  5  7  1  0
  7  8  1  0
  8  9  1  0
  7 10  1  0
 10 11  1  0
 11 12  1  0
 12 13  2  0
 13 14  1  0
 14 15  2  0
 15 16  1  0
 16 12  1  0
  1 17  1  0
  3 18  1  0
  3 19  1  0
  4 20  1  0
  4 21  1  0
  8 22  1  0
  8 23  1  0
  9 24  1  0
  9 25  1  0
  9 26  1  0
 10 27  1  0
 10 28  1  0
 11 29  1  0
 11 30  1  0
 13 31  1  0
 14 32  1  0
 15 33  1  0
M  END
>  <Energy>  (575) 
88.834832853216156

>  <compound_id>  (575) 
84646

>  <target_id>  (575) 
1

>  <reference_id>  (575) 
120

>  <inspiration_ids>  (575) 
[120, 97]

>  <energy_score>  (575) 
65.74518816365992

>  <distance_score>  (575) 
2.7487810905674053

>  <path>  (575) 
/opt/xchem-fragalysis-2/maxwin/BulkDock/SCRATCH/511020/C84646-P120/C84646-P120.minimised.mol

>  <scratch_subdir>  (575) 
/opt/xchem-fragalysis-2/maxwin/BulkDock/SCRATCH/511020/C84646-P120

>  <fragmenstein_runtime>  (575) 
2.1997482776641846

>  <fragmenstein_outcome>  (575) 
too moved

>  <fragmenstein_mode>  (575) 
expansion

>  <fragmenstein_error>  (575) 


$$$$
C84646-P97
     RDKit          3D

 33 33  0  0  0  0  0  0  0  0999 V2000
   12.5757   -3.5896   16.4866 C   0  0  0  0  0  0  0  0  0  0  0  0
   13.6806   -3.6117   16.9480 C   0  0  0  0  0  0  0  0  0  0  0  0
   15.0160   -3.6972   17.5589 C   0  0  0  0  0  0  0  0  0  0  0  0
   15.5425   -2.3244   17.9635 C   0  0  0  0  0  0  0  0  0  0  0  0
   16.4694   -1.6934   16.9242 C   0  0  0  0  0  0  0  0  0  0  0  0
   16.9559   -2.2799   16.0280 O   0  0  0  0  0  0  0  0  0  0  0  0
   16.6655   -0.2516   17.3819 N   0  0  0  0  0  0  0  0  0  0  0  0
   17.6146    0.8179   16.8869 C   0  0  0  0  0  0  0  0  0  0  0  0
   19.0294    0.3512   17.2769 C   0  0  0  0  0  0  0  0  0  0  0  0
   15.6607    0.6913   16.6965 C   0  0  0  0  0  0  0  0  0  0  0  0
   15.4195    0.5447   15.1587 C   0  0  0  0  0  0  0  0  0  0  0  0
   14.1375   -0.1525   14.8071 C   0  0  0  0  0  0  0  0  0  0  0  0
   13.9857   -1.3918   14.2215 C   0  0  0  0  0  0  0  0  0  0  0  0
   12.6193   -1.7238   14.0042 C   0  0  0  0  0  0  0  0  0  0  0  0
   11.7721   -0.7580   14.4904 C   0  0  0  0  0  0  0  0  0  0  0  0
   12.6253    0.6065   15.0583 S   0  0  0  0  0  0  0  0  0  0  0  0
   11.5995   -3.6292   16.0642 H   0  0  0  0  0  0  0  0  0  0  0  0
   14.9276   -4.3139   18.4623 H   0  0  0  0  0  0  0  0  0  0  0  0
   15.7029   -4.2255   16.8896 H   0  0  0  0  0  0  0  0  0  0  0  0
   14.7225   -1.6431   18.2135 H   0  0  0  0  0  0  0  0  0  0  0  0
   16.1559   -2.4438   18.8665 H   0  0  0  0  0  0  0  0  0  0  0  0
   17.6851    0.9367   15.7990 H   0  0  0  0  0  0  0  0  0  0  0  0
   17.5031    1.7726   17.4245 H   0  0  0  0  0  0  0  0  0  0  0  0
   19.1062    0.1990   18.3588 H   0  0  0  0  0  0  0  0  0  0  0  0
   19.7709    1.1001   16.9811 H   0  0  0  0  0  0  0  0  0  0  0  0
   19.2820   -0.5938   16.7845 H   0  0  0  0  0  0  0  0  0  0  0  0
   15.6653    1.7472   17.0224 H   0  0  0  0  0  0  0  0  0  0  0  0
   14.7260    0.3633   17.1772 H   0  0  0  0  0  0  0  0  0  0  0  0
   16.2431    0.0156   14.6650 H   0  0  0  0  0  0  0  0  0  0  0  0
   15.4004    1.5503   14.7180 H   0  0  0  0  0  0  0  0  0  0  0  0
   14.8203   -2.0320   13.9542 H   0  0  0  0  0  0  0  0  0  0  0  0
   12.2695   -2.6430   13.5508 H   0  0  0  0  0  0  0  0  0  0  0  0
   10.6918   -0.7616   14.4834 H   0  0  0  0  0  0  0  0  0  0  0  0
  1  2  3  0
  2  3  1  0
  3  4  1  0
  4  5  1  0
  5  6  2  0
  5  7  1  0
  7  8  1  0
  8  9  1  0
  7 10  1  0
 10 11  1  0
 11 12  1  0
 12 13  2  0
 13 14  1  0
 14 15  2  0
 15 16  1  0
 16 12  1  0
  1 17  1  0
  3 18  1  0
  3 19  1  0
  4 20  1  0
  4 21  1  0
  8 22  1  0
  8 23  1  0
  9 24  1  0
  9 25  1  0
  9 26  1  0
 10 27  1  0
 10 28  1  0
 11 29  1  0
 11 30  1  0
 13 31  1  0
 14 32  1  0
 15 33  1  0
M  END
>  <Energy>  (576) 
89.066746402101714

>  <compound_id>  (576) 
84646

>  <target_id>  (576) 
1

>  <reference_id>  (576) 
97

>  <inspiration_ids>  (576) 
[120, 97]

>  <energy_score>  (576) 
65.9771017125434

>  <distance_score>  (576) 
2.7042554570009654

>  <path>  (576) 
/opt/xchem-fragalysis-2/maxwin/BulkDock/SCRATCH/511020/C84646-P97/C84646-P97.minimised.mol

>  <scratch_subdir>  (576) 
/opt/xchem-fragalysis-2/maxwin/BulkDock/SCRATCH/511020/C84646-P97

>  <fragmenstein_runtime>  (576) 
2.236471176147461

>  <fragmenstein_outcome>  (576) 
too moved

>  <fragmenstein_mode>  (576) 
expansion

>  <fragmenstein_error>  (576) 


$$$$
C84647-P120
     RDKit          3D

 43 43  0  0  0  0  0  0  0  0999 V2000
   13.2982    5.3969   18.2384 C   0  0  0  0  0  0  0  0  0  0  0  0
   12.9666    4.4001   17.1791 N   0  0  0  0  0  0  0  0  0  0  0  0
   14.0359    5.1581   16.4379 C   0  0  0  0  0  0  0  0  0  0  0  0
   13.2189    2.9969   17.1086 C   0  0  0  0  0  0  0  0  0  0  0  0
   13.8413    2.2767   17.8431 O   0  0  0  0  0  0  0  0  0  0  0  0
   12.4407    2.4283   15.9194 C   0  0  0  0  0  0  0  0  0  0  0  0
   12.9012    1.0132   15.5776 C   0  0  0  0  0  0  0  0  0  0  0  0
   12.1647    0.4515   14.3646 C   0  0  0  0  0  0  0  0  0  0  0  0
   12.8823   -1.1356   13.8098 S   0  0  0  0  0  0  0  0  0  0  0  0
   13.4075   -1.9170   15.1701 O   0  0  0  0  0  0  0  0  0  0  0  0
   14.3063   -0.4120   12.9438 C   0  0  0  0  0  0  0  0  0  0  0  0
   15.5358   -1.3050   12.8266 C   0  0  0  0  0  0  0  0  0  0  0  0
   16.0661   -1.4098   11.7565 O   0  0  0  0  0  0  0  0  0  0  0  0
   15.9094   -1.8164   14.1083 N   0  0  0  0  0  0  0  0  0  0  0  0
   16.9820   -2.6924   14.5009 C   0  0  0  0  0  0  0  0  0  0  0  0
   17.6037   -2.2367   15.8253 C   0  0  0  0  0  0  0  0  0  0  0  0
   16.5915   -2.1356   16.9359 C   0  0  0  0  0  0  0  0  0  0  0  0
   15.9891   -0.9955   17.4310 C   0  0  0  0  0  0  0  0  0  0  0  0
   15.0247   -1.2859   18.4363 C   0  0  0  0  0  0  0  0  0  0  0  0
   14.9239   -2.6366   18.6811 C   0  0  0  0  0  0  0  0  0  0  0  0
   16.0122   -3.5423   17.7240 S   0  0  0  0  0  0  0  0  0  0  0  0
   14.3024    5.2945   18.6771 H   0  0  0  0  0  0  0  0  0  0  0  0
   12.6432    5.1076   19.0725 H   0  0  0  0  0  0  0  0  0  0  0  0
   12.9946    6.4291   18.0125 H   0  0  0  0  0  0  0  0  0  0  0  0
   14.0945    4.6950   15.4420 H   0  0  0  0  0  0  0  0  0  0  0  0
   15.0526    5.0129   16.8366 H   0  0  0  0  0  0  0  0  0  0  0  0
   13.7876    6.2063   16.2128 H   0  0  0  0  0  0  0  0  0  0  0  0
   12.5687    3.0763   15.0460 H   0  0  0  0  0  0  0  0  0  0  0  0
   11.3771    2.4226   16.1855 H   0  0  0  0  0  0  0  0  0  0  0  0
   12.7345    0.3556   16.4402 H   0  0  0  0  0  0  0  0  0  0  0  0
   13.9849    1.0248   15.4170 H   0  0  0  0  0  0  0  0  0  0  0  0
   11.1206    0.2500   14.6264 H   0  0  0  0  0  0  0  0  0  0  0  0
   12.1703    1.1453   13.5179 H   0  0  0  0  0  0  0  0  0  0  0  0
   13.9635   -0.1442   11.9392 H   0  0  0  0  0  0  0  0  0  0  0  0
   14.6330    0.5079   13.4355 H   0  0  0  0  0  0  0  0  0  0  0  0
   15.1701   -1.5988   14.7828 H   0  0  0  0  0  0  0  0  0  0  0  0
   16.5591   -3.6965   14.5972 H   0  0  0  0  0  0  0  0  0  0  0  0
   17.7321   -2.7125   13.7041 H   0  0  0  0  0  0  0  0  0  0  0  0
   18.0743   -1.2550   15.6846 H   0  0  0  0  0  0  0  0  0  0  0  0
   18.4045   -2.9294   16.1108 H   0  0  0  0  0  0  0  0  0  0  0  0
   16.2093    0.0046   17.0779 H   0  0  0  0  0  0  0  0  0  0  0  0
   14.4313   -0.5360   18.9454 H   0  0  0  0  0  0  0  0  0  0  0  0
   14.2682   -3.1333   19.3834 H   0  0  0  0  0  0  0  0  0  0  0  0
  1  2  1  0
  2  3  1  0
  2  4  1  0
  4  5  2  0
  4  6  1  0
  6  7  1  0
  7  8  1  0
  8  9  1  0
  9 10  1  0
  9 11  1  0
 11 12  1  0
 12 13  2  0
 12 14  1  0
 14 15  1  0
 15 16  1  0
 16 17  1  0
 17 18  2  0
 18 19  1  0
 19 20  2  0
 20 21  1  0
 21 17  1  0
  1 22  1  0
  1 23  1  0
  1 24  1  0
  3 25  1  0
  3 26  1  0
  3 27  1  0
  6 28  1  0
  6 29  1  0
  7 30  1  0
  7 31  1  0
  8 32  1  0
  8 33  1  0
 11 34  1  0
 11 35  1  0
 14 36  1  0
 15 37  1  0
 15 38  1  0
 16 39  1  0
 16 40  1  0
 18 41  1  0
 19 42  1  0
 20 43  1  0
M  CHG  2   9   1  10  -1
M  END
>  <Energy>  (577) 
65.506546601188404

>  <compound_id>  (577) 
84647

>  <target_id>  (577) 
1

>  <reference_id>  (577) 
120

>  <inspiration_ids>  (577) 
[120, 97]

>  <energy_score>  (577) 
15.567747078608953

>  <distance_score>  (577) 
2.653215516604267

>  <path>  (577) 
/opt/xchem-fragalysis-2/maxwin/BulkDock/SCRATCH/511020/C84647-P120/C84647-P120.minimised.mol

>  <scratch_subdir>  (577) 
/opt/xchem-fragalysis-2/maxwin/BulkDock/SCRATCH/511020/C84647-P120

>  <fragmenstein_runtime>  (577) 
7.306739091873169

>  <fragmenstein_outcome>  (577) 
too moved

>  <fragmenstein_mode>  (577) 
expansion

>  <fragmenstein_error>  (577) 


$$$$
C84647-P97
     RDKit          3D

 43 43  0  0  0  0  0  0  0  0999 V2000
   10.3913    5.5424   17.7018 C   0  0  0  0  0  0  0  0  0  0  0  0
   10.6191    4.4927   16.6647 N   0  0  0  0  0  0  0  0  0  0  0  0
   11.2950    5.6423   15.9637 C   0  0  0  0  0  0  0  0  0  0  0  0
   11.4717    3.3489   16.6691 C   0  0  0  0  0  0  0  0  0  0  0  0
   12.2901    2.9874   17.4717 O   0  0  0  0  0  0  0  0  0  0  0  0
   11.1192    2.4855   15.4566 C   0  0  0  0  0  0  0  0  0  0  0  0
   12.1391    1.3696   15.2241 C   0  0  0  0  0  0  0  0  0  0  0  0
   11.6680    0.4213   14.1286 C   0  0  0  0  0  0  0  0  0  0  0  0
   12.7748   -0.9995   13.8823 S   0  0  0  0  0  0  0  0  0  0  0  0
   13.3068   -1.4844   15.3742 O   0  0  0  0  0  0  0  0  0  0  0  0
   14.1244   -0.0902   13.0838 C   0  0  0  0  0  0  0  0  0  0  0  0
   15.3207   -0.9804   12.7796 C   0  0  0  0  0  0  0  0  0  0  0  0
   15.7313   -1.0290   11.6548 O   0  0  0  0  0  0  0  0  0  0  0  0
   15.8243   -1.5669   13.9861 N   0  0  0  0  0  0  0  0  0  0  0  0
   16.9213   -2.4722   14.2106 C   0  0  0  0  0  0  0  0  0  0  0  0
   17.5271   -2.3129   15.6041 C   0  0  0  0  0  0  0  0  0  0  0  0
   16.5389   -2.5338   16.7182 C   0  0  0  0  0  0  0  0  0  0  0  0
   16.0630   -1.6007   17.6179 C   0  0  0  0  0  0  0  0  0  0  0  0
   15.1371   -2.1620   18.5404 C   0  0  0  0  0  0  0  0  0  0  0  0
   14.9064   -3.4969   18.2971 C   0  0  0  0  0  0  0  0  0  0  0  0
   15.8543   -4.0815   17.0014 S   0  0  0  0  0  0  0  0  0  0  0  0
    9.8720    4.9983   18.5032 H   0  0  0  0  0  0  0  0  0  0  0  0
   11.3000    5.9025   18.2078 H   0  0  0  0  0  0  0  0  0  0  0  0
    9.6790    6.3286   17.4135 H   0  0  0  0  0  0  0  0  0  0  0  0
   11.6282    5.2461   14.9934 H   0  0  0  0  0  0  0  0  0  0  0  0
   10.6257    6.4688   15.6808 H   0  0  0  0  0  0  0  0  0  0  0  0
   12.2368    5.9676   16.4335 H   0  0  0  0  0  0  0  0  0  0  0  0
   10.1299    2.0513   15.6474 H   0  0  0  0  0  0  0  0  0  0  0  0
   11.0474    3.1065   14.5575 H   0  0  0  0  0  0  0  0  0  0  0  0
   12.2969    0.8110   16.1530 H   0  0  0  0  0  0  0  0  0  0  0  0
   13.1034    1.8226   14.9724 H   0  0  0  0  0  0  0  0  0  0  0  0
   11.5446    0.9386   13.1716 H   0  0  0  0  0  0  0  0  0  0  0  0
   10.6956    0.0005   14.4054 H   0  0  0  0  0  0  0  0  0  0  0  0
   14.4684    0.7284   13.7203 H   0  0  0  0  0  0  0  0  0  0  0  0
   13.7433    0.3277   12.1467 H   0  0  0  0  0  0  0  0  0  0  0  0
   15.1645   -1.3816   14.7483 H   0  0  0  0  0  0  0  0  0  0  0  0
   16.5350   -3.4829   14.0668 H   0  0  0  0  0  0  0  0  0  0  0  0
   17.6758   -2.2948   13.4372 H   0  0  0  0  0  0  0  0  0  0  0  0
   17.9501   -1.3043   15.6980 H   0  0  0  0  0  0  0  0  0  0  0  0
   18.3633   -3.0136   15.7185 H   0  0  0  0  0  0  0  0  0  0  0  0
   16.3692   -0.5618   17.6209 H   0  0  0  0  0  0  0  0  0  0  0  0
   14.6574   -1.6109   19.3389 H   0  0  0  0  0  0  0  0  0  0  0  0
   14.2369   -4.1578   18.8303 H   0  0  0  0  0  0  0  0  0  0  0  0
  1  2  1  0
  2  3  1  0
  2  4  1  0
  4  5  2  0
  4  6  1  0
  6  7  1  0
  7  8  1  0
  8  9  1  0
  9 10  1  0
  9 11  1  0
 11 12  1  0
 12 13  2  0
 12 14  1  0
 14 15  1  0
 15 16  1  0
 16 17  1  0
 17 18  2  0
 18 19  1  0
 19 20  2  0
 20 21  1  0
 21 17  1  0
  1 22  1  0
  1 23  1  0
  1 24  1  0
  3 25  1  0
  3 26  1  0
  3 27  1  0
  6 28  1  0
  6 29  1  0
  7 30  1  0
  7 31  1  0
  8 32  1  0
  8 33  1  0
 11 34  1  0
 11 35  1  0
 14 36  1  0
 15 37  1  0
 15 38  1  0
 16 39  1  0
 16 40  1  0
 18 41  1  0
 19 42  1  0
 20 43  1  0
M  CHG  2   9   1  10  -1
M  END
>  <Energy>  (578) 
63.875834444690696

>  <compound_id>  (578) 
84647

>  <target_id>  (578) 
1

>  <reference_id>  (578) 
97

>  <inspiration_ids>  (578) 
[120, 97]

>  <energy_score>  (578) 
13.937034922112389

>  <distance_score>  (578) 
2.7025738785505258

>  <path>  (578) 
/opt/xchem-fragalysis-2/maxwin/BulkDock/SCRATCH/511020/C84647-P97/C84647-P97.minimised.mol

>  <scratch_subdir>  (578) 
/opt/xchem-fragalysis-2/maxwin/BulkDock/SCRATCH/511020/C84647-P97

>  <fragmenstein_runtime>  (578) 
6.354268312454224

>  <fragmenstein_outcome>  (578) 
too moved

>  <fragmenstein_mode>  (578) 
expansion

>  <fragmenstein_error>  (578) 


$$$$
C84648-P120
     RDKit          3D

 39 39  0  0  0  0  0  0  0  0999 V2000
   15.0187    2.6493   15.9337 C   0  0  0  0  0  0  0  0  0  0  0  0
   13.9652    1.9188   15.1611 C   0  0  0  0  0  0  0  0  0  0  0  0
   12.8879    1.3188   16.0248 C   0  0  0  0  0  0  0  0  0  0  0  0
   13.9428    1.8098   13.8173 C   0  0  0  0  0  0  0  0  0  0  0  0
   14.9791    2.2958   12.8464 C   0  0  0  0  0  0  0  0  0  0  0  0
   14.9330    1.2521   11.3427 S   0  0  0  0  0  0  0  0  0  0  0  0
   16.7283    0.9682   11.0864 C   0  0  0  0  0  0  0  0  0  0  0  0
   16.9316    0.0760    9.8674 C   0  0  0  0  0  0  0  0  0  0  0  0
   17.4049    0.3488   12.3245 C   0  0  0  0  0  0  0  0  0  0  0  0
   18.4245    0.7518   12.7269 O   0  0  0  0  0  0  0  0  0  0  0  0
   16.5168   -0.8160   12.8287 N   0  0  0  0  0  0  0  0  0  0  0  0
   16.6524   -1.6619   13.9863 C   0  0  0  0  0  0  0  0  0  0  0  0
   15.7965   -1.1428   15.1450 C   0  0  0  0  0  0  0  0  0  0  0  0
   14.3898   -1.6861   15.1567 C   0  0  0  0  0  0  0  0  0  0  0  0
   13.7652   -2.3393   16.2023 C   0  0  0  0  0  0  0  0  0  0  0  0
   12.4407   -2.7480   15.8831 C   0  0  0  0  0  0  0  0  0  0  0  0
   12.0746   -2.3673   14.6164 C   0  0  0  0  0  0  0  0  0  0  0  0
   13.3436   -1.5601   13.8059 S   0  0  0  0  0  0  0  0  0  0  0  0
   15.5554    1.9600   16.5937 H   0  0  0  0  0  0  0  0  0  0  0  0
   14.5600    3.4275   16.5535 H   0  0  0  0  0  0  0  0  0  0  0  0
   15.7573    3.1441   15.2982 H   0  0  0  0  0  0  0  0  0  0  0  0
   12.3827    2.1097   16.5901 H   0  0  0  0  0  0  0  0  0  0  0  0
   13.3154    0.6122   16.7417 H   0  0  0  0  0  0  0  0  0  0  0  0
   12.1198    0.8020   15.4423 H   0  0  0  0  0  0  0  0  0  0  0  0
   13.0717    1.3302   13.3716 H   0  0  0  0  0  0  0  0  0  0  0  0
   14.7349    3.3169   12.5378 H   0  0  0  0  0  0  0  0  0  0  0  0
   15.9773    2.2982   13.2870 H   0  0  0  0  0  0  0  0  0  0  0  0
   17.1898    1.9447   10.9011 H   0  0  0  0  0  0  0  0  0  0  0  0
   18.0001   -0.1060    9.7046 H   0  0  0  0  0  0  0  0  0  0  0  0
   16.5355    0.5454    8.9602 H   0  0  0  0  0  0  0  0  0  0  0  0
   16.4553   -0.9043    9.9824 H   0  0  0  0  0  0  0  0  0  0  0  0
   15.7334   -0.9465   12.1921 H   0  0  0  0  0  0  0  0  0  0  0  0
   16.4016   -2.6873   13.7003 H   0  0  0  0  0  0  0  0  0  0  0  0
   17.7077   -1.6265   14.2763 H   0  0  0  0  0  0  0  0  0  0  0  0
   16.2783   -1.4645   16.0782 H   0  0  0  0  0  0  0  0  0  0  0  0
   15.7945   -0.0524   15.1663 H   0  0  0  0  0  0  0  0  0  0  0  0
   14.2473   -2.5373   17.1523 H   0  0  0  0  0  0  0  0  0  0  0  0
   11.7967   -3.3121   16.5433 H   0  0  0  0  0  0  0  0  0  0  0  0
   11.1334   -2.5444   14.1163 H   0  0  0  0  0  0  0  0  0  0  0  0
  1  2  1  0
  2  3  1  0
  2  4  2  3
  4  5  1  0
  5  6  1  0
  6  7  1  0
  7  8  1  0
  7  9  1  0
  9 10  2  0
  9 11  1  0
 11 12  1  0
 12 13  1  0
 13 14  1  0
 14 15  2  0
 15 16  1  0
 16 17  2  0
 17 18  1  0
 18 14  1  0
  1 19  1  0
  1 20  1  0
  1 21  1  0
  3 22  1  0
  3 23  1  0
  3 24  1  0
  4 25  1  0
  5 26  1  0
  5 27  1  0
  7 28  1  0
  8 29  1  0
  8 30  1  0
  8 31  1  0
 11 32  1  0
 12 33  1  0
 12 34  1  0
 13 35  1  0
 13 36  1  0
 15 37  1  0
 16 38  1  0
 17 39  1  0
M  END
>  <Energy>  (579) 
46.712213868763428

>  <compound_id>  (579) 
84648

>  <target_id>  (579) 
1

>  <reference_id>  (579) 
120

>  <inspiration_ids>  (579) 
[120, 97]

>  <energy_score>  (579) 
-26.940303477260642

>  <distance_score>  (579) 
2.1874990632198807

>  <path>  (579) 
/opt/xchem-fragalysis-2/maxwin/BulkDock/SCRATCH/511020/C84648-P120/C84648-P120.minimised.mol

>  <scratch_subdir>  (579) 
/opt/xchem-fragalysis-2/maxwin/BulkDock/SCRATCH/511020/C84648-P120

>  <fragmenstein_runtime>  (579) 
3.226680278778076

>  <fragmenstein_outcome>  (579) 
too moved

>  <fragmenstein_mode>  (579) 
expansion

>  <fragmenstein_error>  (579) 


$$$$
C84648-P97
     RDKit          3D

 39 39  0  0  0  0  0  0  0  0999 V2000
   15.0196    2.6633   15.8981 C   0  0  0  0  0  0  0  0  0  0  0  0
   13.9703    1.9229   15.1290 C   0  0  0  0  0  0  0  0  0  0  0  0
   12.9080    1.3031   15.9951 C   0  0  0  0  0  0  0  0  0  0  0  0
   13.9407    1.8173   13.7852 C   0  0  0  0  0  0  0  0  0  0  0  0
   14.9650    2.3180   12.8087 C   0  0  0  0  0  0  0  0  0  0  0  0
   14.9451    1.2545   11.3165 S   0  0  0  0  0  0  0  0  0  0  0  0
   16.7462    0.9717   11.0674 C   0  0  0  0  0  0  0  0  0  0  0  0
   17.4165    2.2481   10.5705 C   0  0  0  0  0  0  0  0  0  0  0  0
   17.4159    0.4187   12.3455 C   0  0  0  0  0  0  0  0  0  0  0  0
   18.3746    0.8936   12.8134 O   0  0  0  0  0  0  0  0  0  0  0  0
   16.5821   -0.8105   12.7932 N   0  0  0  0  0  0  0  0  0  0  0  0
   16.7021   -1.6471   13.9593 C   0  0  0  0  0  0  0  0  0  0  0  0
   15.8352   -1.1140   15.1042 C   0  0  0  0  0  0  0  0  0  0  0  0
   14.4382   -1.6801   15.1231 C   0  0  0  0  0  0  0  0  0  0  0  0
   13.8356   -2.3538   16.1684 C   0  0  0  0  0  0  0  0  0  0  0  0
   12.5197   -2.7915   15.8546 C   0  0  0  0  0  0  0  0  0  0  0  0
   12.1368   -2.4102   14.5933 C   0  0  0  0  0  0  0  0  0  0  0  0
   13.3792   -1.5641   13.7806 S   0  0  0  0  0  0  0  0  0  0  0  0
   15.5729    1.9770   16.5473 H   0  0  0  0  0  0  0  0  0  0  0  0
   14.5545    3.4290   16.5286 H   0  0  0  0  0  0  0  0  0  0  0  0
   15.7444    3.1756   15.2605 H   0  0  0  0  0  0  0  0  0  0  0  0
   12.3975    2.0831   16.5706 H   0  0  0  0  0  0  0  0  0  0  0  0
   13.3522    0.5970   16.7020 H   0  0  0  0  0  0  0  0  0  0  0  0
   12.1418    0.7806   15.4153 H   0  0  0  0  0  0  0  0  0  0  0  0
   13.0746    1.3266   13.3418 H   0  0  0  0  0  0  0  0  0  0  0  0
   15.9607    2.3522   13.2523 H   0  0  0  0  0  0  0  0  0  0  0  0
   14.6944    3.3286   12.4878 H   0  0  0  0  0  0  0  0  0  0  0  0
   16.8503    0.2040   10.2916 H   0  0  0  0  0  0  0  0  0  0  0  0
   17.3804    3.0507   11.3152 H   0  0  0  0  0  0  0  0  0  0  0  0
   16.9524    2.6103    9.6468 H   0  0  0  0  0  0  0  0  0  0  0  0
   18.4747    2.0621   10.3536 H   0  0  0  0  0  0  0  0  0  0  0  0
   15.8542   -0.9959   12.1068 H   0  0  0  0  0  0  0  0  0  0  0  0
   16.4545   -2.6754   13.6798 H   0  0  0  0  0  0  0  0  0  0  0  0
   17.7542   -1.6078   14.2608 H   0  0  0  0  0  0  0  0  0  0  0  0
   16.3189   -1.4065   16.0460 H   0  0  0  0  0  0  0  0  0  0  0  0
   15.8164   -0.0237   15.1007 H   0  0  0  0  0  0  0  0  0  0  0  0
   14.3303   -2.5536   17.1119 H   0  0  0  0  0  0  0  0  0  0  0  0
   11.8973   -3.3818   16.5130 H   0  0  0  0  0  0  0  0  0  0  0  0
   11.1998   -2.6133   14.0965 H   0  0  0  0  0  0  0  0  0  0  0  0
  1  2  1  0
  2  3  1  0
  2  4  2  3
  4  5  1  0
  5  6  1  0
  6  7  1  0
  7  8  1  0
  7  9  1  0
  9 10  2  0
  9 11  1  0
 11 12  1  0
 12 13  1  0
 13 14  1  0
 14 15  2  0
 15 16  1  0
 16 17  2  0
 17 18  1  0
 18 14  1  0
  1 19  1  0
  1 20  1  0
  1 21  1  0
  3 22  1  0
  3 23  1  0
  3 24  1  0
  4 25  1  0
  5 26  1  0
  5 27  1  0
  7 28  1  0
  8 29  1  0
  8 30  1  0
  8 31  1  0
 11 32  1  0
 12 33  1  0
 12 34  1  0
 13 35  1  0
 13 36  1  0
 15 37  1  0
 16 38  1  0
 17 39  1  0
M  END
>  <Energy>  (580) 
45.37957723601491

>  <compound_id>  (580) 
84648

>  <target_id>  (580) 
1

>  <reference_id>  (580) 
97

>  <inspiration_ids>  (580) 
[120, 97]

>  <energy_score>  (580) 
-28.272940110009728

>  <distance_score>  (580) 
2.173299399125847

>  <path>  (580) 
/opt/xchem-fragalysis-2/maxwin/BulkDock/SCRATCH/511020/C84648-P97/C84648-P97.minimised.mol

>  <scratch_subdir>  (580) 
/opt/xchem-fragalysis-2/maxwin/BulkDock/SCRATCH/511020/C84648-P97

>  <fragmenstein_runtime>  (580) 
2.771731376647949

>  <fragmenstein_outcome>  (580) 
too moved

>  <fragmenstein_mode>  (580) 
expansion

>  <fragmenstein_error>  (580) 


$$$$
C84651-P120
     RDKit          3D

 32 32  0  0  0  0  0  0  0  0999 V2000
   15.3430   -1.8768   11.6961 C   0  0  0  0  0  0  0  0  0  0  0  0
   16.6983   -1.3255   12.1707 C   0  0  0  0  0  0  0  0  0  0  0  0
   17.4457   -2.3641   13.0221 C   0  0  0  0  0  0  0  0  0  0  0  0
   17.5505   -1.0352   10.9166 C   0  0  0  0  0  0  0  0  0  0  0  0
   16.5169   -0.0041   12.9899 C   0  0  0  0  0  0  0  0  0  0  0  0
   17.0964    0.9788   12.6314 O   0  0  0  0  0  0  0  0  0  0  0  0
   15.6664   -0.2265   14.1194 N   0  0  0  0  0  0  0  0  0  0  0  0
   15.1642    0.6881   15.1274 C   0  0  0  0  0  0  0  0  0  0  0  0
   14.0696    1.5330   14.6038 C   0  0  0  0  0  0  0  0  0  0  0  0
   13.1860    2.1811   14.2191 N   0  0  0  0  0  0  0  0  0  0  0  0
   14.7467   -0.0206   16.4260 C   0  0  0  0  0  0  0  0  0  0  0  0
   13.7996   -1.1861   16.2473 C   0  0  0  0  0  0  0  0  0  0  0  0
   12.5928   -1.2466   15.5755 C   0  0  0  0  0  0  0  0  0  0  0  0
   11.9989   -2.5392   15.6368 C   0  0  0  0  0  0  0  0  0  0  0  0
   12.7413   -3.4132   16.3953 C   0  0  0  0  0  0  0  0  0  0  0  0
   14.1776   -2.6983   16.9743 S   0  0  0  0  0  0  0  0  0  0  0  0
   14.7698   -1.1036   11.1718 H   0  0  0  0  0  0  0  0  0  0  0  0
   14.7220   -2.2364   12.5227 H   0  0  0  0  0  0  0  0  0  0  0  0
   15.4783   -2.7196   11.0093 H   0  0  0  0  0  0  0  0  0  0  0  0
   17.7529   -3.2241   12.4175 H   0  0  0  0  0  0  0  0  0  0  0  0
   18.3495   -1.9294   13.4646 H   0  0  0  0  0  0  0  0  0  0  0  0
   16.8319   -2.7440   13.8455 H   0  0  0  0  0  0  0  0  0  0  0  0
   17.0730   -0.2820   10.2790 H   0  0  0  0  0  0  0  0  0  0  0  0
   18.5430   -0.6567   11.1876 H   0  0  0  0  0  0  0  0  0  0  0  0
   17.6939   -1.9391   10.3133 H   0  0  0  0  0  0  0  0  0  0  0  0
   15.4148   -1.2073   14.1551 H   0  0  0  0  0  0  0  0  0  0  0  0
   15.9972    1.3635   15.3617 H   0  0  0  0  0  0  0  0  0  0  0  0
   14.2845    0.6962   17.1179 H   0  0  0  0  0  0  0  0  0  0  0  0
   15.6623   -0.3750   16.9192 H   0  0  0  0  0  0  0  0  0  0  0  0
   12.1368   -0.4158   15.0488 H   0  0  0  0  0  0  0  0  0  0  0  0
   11.0631   -2.8110   15.1598 H   0  0  0  0  0  0  0  0  0  0  0  0
   12.5068   -4.4450   16.6218 H   0  0  0  0  0  0  0  0  0  0  0  0
  1  2  1  0
  2  3  1  0
  2  4  1  0
  2  5  1  0
  5  6  2  0
  5  7  1  0
  7  8  1  0
  8  9  1  0
  9 10  3  0
  8 11  1  0
 11 12  1  0
 12 13  2  0
 13 14  1  0
 14 15  2  0
 15 16  1  0
 16 12  1  0
  1 17  1  0
  1 18  1  0
  1 19  1  0
  3 20  1  0
  3 21  1  0
  3 22  1  0
  4 23  1  0
  4 24  1  0
  4 25  1  0
  7 26  1  0
  8 27  1  0
 11 28  1  0
 11 29  1  0
 13 30  1  0
 14 31  1  0
 15 32  1  0
M  END
>  <Energy>  (581) 
20.426407488465468

>  <compound_id>  (581) 
84651

>  <target_id>  (581) 
1

>  <reference_id>  (581) 
120

>  <inspiration_ids>  (581) 
[120, 97]

>  <energy_score>  (581) 
-18.433900094885466

>  <distance_score>  (581) 
1.9629057382008002

>  <path>  (581) 
/opt/xchem-fragalysis-2/maxwin/BulkDock/SCRATCH/511020/C84651-P120/C84651-P120.minimised.mol

>  <scratch_subdir>  (581) 
/opt/xchem-fragalysis-2/maxwin/BulkDock/SCRATCH/511020/C84651-P120

>  <fragmenstein_runtime>  (581) 
3.403345823287964

>  <fragmenstein_outcome>  (581) 
too moved

>  <fragmenstein_mode>  (581) 
expansion

>  <fragmenstein_error>  (581) 


$$$$
C84651-P97
     RDKit          3D

 32 32  0  0  0  0  0  0  0  0999 V2000
   15.5004   -0.0810   10.3899 C   0  0  0  0  0  0  0  0  0  0  0  0
   16.3992   -0.7058   11.4660 C   0  0  0  0  0  0  0  0  0  0  0  0
   16.0961   -2.2032   11.6254 C   0  0  0  0  0  0  0  0  0  0  0  0
   17.8644   -0.5656   11.0012 C   0  0  0  0  0  0  0  0  0  0  0  0
   16.2348    0.0361   12.8306 C   0  0  0  0  0  0  0  0  0  0  0  0
   17.1207    0.6114   13.3253 O   0  0  0  0  0  0  0  0  0  0  0  0
   14.7726   -0.1547   13.3054 N   0  0  0  0  0  0  0  0  0  0  0  0
   14.1236    0.2454   14.5385 C   0  0  0  0  0  0  0  0  0  0  0  0
   14.0657    1.7063   14.7054 C   0  0  0  0  0  0  0  0  0  0  0  0
   13.9249    2.8424   14.8793 N   0  0  0  0  0  0  0  0  0  0  0  0
   14.7883   -0.3836   15.7704 C   0  0  0  0  0  0  0  0  0  0  0  0
   14.1793   -1.7044   16.1906 C   0  0  0  0  0  0  0  0  0  0  0  0
   13.0393   -2.3511   15.7524 C   0  0  0  0  0  0  0  0  0  0  0  0
   12.7694   -3.5329   16.4959 C   0  0  0  0  0  0  0  0  0  0  0  0
   13.7096   -3.7685   17.4668 C   0  0  0  0  0  0  0  0  0  0  0  0
   14.9335   -2.5885   17.4630 S   0  0  0  0  0  0  0  0  0  0  0  0
   15.7056   -0.5119    9.4032 H   0  0  0  0  0  0  0  0  0  0  0  0
   14.4386   -0.2404   10.5943 H   0  0  0  0  0  0  0  0  0  0  0  0
   15.6597    1.0014   10.3263 H   0  0  0  0  0  0  0  0  0  0  0  0
   16.3873   -2.7628   10.7300 H   0  0  0  0  0  0  0  0  0  0  0  0
   16.6448   -2.6207   12.4771 H   0  0  0  0  0  0  0  0  0  0  0  0
   15.0325   -2.4007   11.7937 H   0  0  0  0  0  0  0  0  0  0  0  0
   18.1405    0.4871   10.8692 H   0  0  0  0  0  0  0  0  0  0  0  0
   18.5561   -0.9974   11.7340 H   0  0  0  0  0  0  0  0  0  0  0  0
   18.0308   -1.0754   10.0454 H   0  0  0  0  0  0  0  0  0  0  0  0
   14.2471   -0.6418   12.5930 H   0  0  0  0  0  0  0  0  0  0  0  0
   13.0830   -0.0747   14.4326 H   0  0  0  0  0  0  0  0  0  0  0  0
   14.6845    0.2864   16.6366 H   0  0  0  0  0  0  0  0  0  0  0  0
   15.8658   -0.5145   15.6073 H   0  0  0  0  0  0  0  0  0  0  0  0
   12.3889   -2.0115   14.9561 H   0  0  0  0  0  0  0  0  0  0  0  0
   11.9124   -4.1785   16.3409 H   0  0  0  0  0  0  0  0  0  0  0  0
   13.7291   -4.5731   18.1878 H   0  0  0  0  0  0  0  0  0  0  0  0
  1  2  1  0
  2  3  1  0
  2  4  1  0
  2  5  1  0
  5  6  2  0
  5  7  1  0
  7  8  1  0
  8  9  1  0
  9 10  3  0
  8 11  1  0
 11 12  1  0
 12 13  2  0
 13 14  1  0
 14 15  2  0
 15 16  1  0
 16 12  1  0
  1 17  1  0
  1 18  1  0
  1 19  1  0
  3 20  1  0
  3 21  1  0
  3 22  1  0
  4 23  1  0
  4 24  1  0
  4 25  1  0
  7 26  1  0
  8 27  1  0
 11 28  1  0
 11 29  1  0
 13 30  1  0
 14 31  1  0
 15 32  1  0
M  END
>  <Energy>  (582) 
35.469218175090973

>  <compound_id>  (582) 
84651

>  <target_id>  (582) 
1

>  <reference_id>  (582) 
97

>  <inspiration_ids>  (582) 
[120, 97]

>  <energy_score>  (582) 
-8.221590846986167

>  <distance_score>  (582) 
2.1093074974699206

>  <path>  (582) 
/opt/xchem-fragalysis-2/maxwin/BulkDock/SCRATCH/511020/C84651-P97/C84651-P97.minimised.mol

>  <scratch_subdir>  (582) 
/opt/xchem-fragalysis-2/maxwin/BulkDock/SCRATCH/511020/C84651-P97

>  <fragmenstein_runtime>  (582) 
2.742241621017456

>  <fragmenstein_outcome>  (582) 
too moved

>  <fragmenstein_mode>  (582) 
expansion

>  <fragmenstein_error>  (582) 


$$$$
C84655-P120
     RDKit          3D

 22 22  0  0  0  0  0  0  0  0999 V2000
   15.2637    1.2387   12.8811 C   0  0  0  0  0  0  0  0  0  0  0  0
   15.8527    0.5740   14.1231 C   0  0  0  0  0  0  0  0  0  0  0  0
   14.8747    0.5752   15.3116 C   0  0  0  0  0  0  0  0  0  0  0  0
   13.8720   -0.5470   15.2874 C   0  0  0  0  0  0  0  0  0  0  0  0
   13.9529   -1.7589   15.9469 C   0  0  0  0  0  0  0  0  0  0  0  0
   12.7900   -2.5620   15.7687 C   0  0  0  0  0  0  0  0  0  0  0  0
   11.8695   -1.9536   14.9479 C   0  0  0  0  0  0  0  0  0  0  0  0
   12.3932   -0.4032   14.4380 S   0  0  0  0  0  0  0  0  0  0  0  0
   17.0874    1.2548   14.4876 N   0  0  0  0  0  0  0  0  0  0  0  0
   18.2385    0.8117   15.4065 C   0  0  0  0  0  0  0  0  0  0  0  0
   18.4186   -0.1961   15.9555 O   0  0  0  0  0  0  0  0  0  0  0  0
   14.4029    0.6858   12.4965 H   0  0  0  0  0  0  0  0  0  0  0  0
   14.9489    2.2671   13.0901 H   0  0  0  0  0  0  0  0  0  0  0  0
   16.0086    1.2825   12.0782 H   0  0  0  0  0  0  0  0  0  0  0  0
   16.1405   -0.4576   13.8872 H   0  0  0  0  0  0  0  0  0  0  0  0
   14.3617    1.5434   15.3835 H   0  0  0  0  0  0  0  0  0  0  0  0
   15.4406    0.4824   16.2493 H   0  0  0  0  0  0  0  0  0  0  0  0
   14.8074   -2.0507   16.5479 H   0  0  0  0  0  0  0  0  0  0  0  0
   12.6444   -3.5440   16.2037 H   0  0  0  0  0  0  0  0  0  0  0  0
   10.9126   -2.3373   14.6201 H   0  0  0  0  0  0  0  0  0  0  0  0
   17.2050    2.2324   14.2450 H   0  0  0  0  0  0  0  0  0  0  0  0
   18.9210    1.6827   15.4405 H   0  0  0  0  0  0  0  0  0  0  0  0
  1  2  1  0
  2  3  1  0
  3  4  1  0
  4  5  2  0
  5  6  1  0
  6  7  2  0
  7  8  1  0
  2  9  1  0
  9 10  1  0
 10 11  2  0
  8  4  1  0
  1 12  1  0
  1 13  1  0
  1 14  1  0
  2 15  1  0
  3 16  1  0
  3 17  1  0
  5 18  1  0
  6 19  1  0
  7 20  1  0
  9 21  1  0
 10 22  1  0
M  END
>  <Energy>  (583) 
7.8378161527655967

>  <compound_id>  (583) 
84655

>  <target_id>  (583) 
1

>  <reference_id>  (583) 
120

>  <inspiration_ids>  (583) 
[120, 97]

>  <energy_score>  (583) 
-14.186438919674096

>  <distance_score>  (583) 
2.343895166483247

>  <path>  (583) 
/opt/xchem-fragalysis-2/maxwin/BulkDock/SCRATCH/511020/C84655-P120/C84655-P120.minimised.mol

>  <scratch_subdir>  (583) 
/opt/xchem-fragalysis-2/maxwin/BulkDock/SCRATCH/511020/C84655-P120

>  <fragmenstein_runtime>  (583) 
4.344951391220093

>  <fragmenstein_outcome>  (583) 
too moved

>  <fragmenstein_mode>  (583) 
expansion

>  <fragmenstein_error>  (583) 


$$$$
C84655-P97
     RDKit          3D

 22 22  0  0  0  0  0  0  0  0999 V2000
   16.0044    1.8728   13.2449 C   0  0  0  0  0  0  0  0  0  0  0  0
   14.8344    0.9055   13.3877 C   0  0  0  0  0  0  0  0  0  0  0  0
   14.6479    0.5382   14.8765 C   0  0  0  0  0  0  0  0  0  0  0  0
   13.7361   -0.6388   15.1194 C   0  0  0  0  0  0  0  0  0  0  0  0
   14.0274   -1.8062   15.7992 C   0  0  0  0  0  0  0  0  0  0  0  0
   12.9196   -2.7019   15.8582 C   0  0  0  0  0  0  0  0  0  0  0  0
   11.8227   -2.2048   15.1948 C   0  0  0  0  0  0  0  0  0  0  0  0
   12.1037   -0.6269   14.6010 S   0  0  0  0  0  0  0  0  0  0  0  0
   13.6365    1.4998   12.8141 N   0  0  0  0  0  0  0  0  0  0  0  0
   13.3963    2.1254   11.4296 C   0  0  0  0  0  0  0  0  0  0  0  0
   14.1366    2.3337   10.5583 O   0  0  0  0  0  0  0  0  0  0  0  0
   16.2100    2.0988   12.1937 H   0  0  0  0  0  0  0  0  0  0  0  0
   15.8003    2.8218   13.7534 H   0  0  0  0  0  0  0  0  0  0  0  0
   16.9196    1.4474   13.6705 H   0  0  0  0  0  0  0  0  0  0  0  0
   15.0495    0.0062   12.7982 H   0  0  0  0  0  0  0  0  0  0  0  0
   14.2619    1.4030   15.4328 H   0  0  0  0  0  0  0  0  0  0  0  0
   15.6273    0.2999   15.3123 H   0  0  0  0  0  0  0  0  0  0  0  0
   14.9967   -2.0183   16.2356 H   0  0  0  0  0  0  0  0  0  0  0  0
   12.9394   -3.6767   16.3335 H   0  0  0  0  0  0  0  0  0  0  0  0
   10.8655   -2.6827   15.0371 H   0  0  0  0  0  0  0  0  0  0  0  0
   12.7489    1.3916   13.2959 H   0  0  0  0  0  0  0  0  0  0  0  0
   12.3169    2.3705   11.4174 H   0  0  0  0  0  0  0  0  0  0  0  0
  1  2  1  0
  2  3  1  0
  3  4  1  0
  4  5  2  0
  5  6  1  0
  6  7  2  0
  7  8  1  0
  2  9  1  0
  9 10  1  0
 10 11  2  0
  8  4  1  0
  1 12  1  0
  1 13  1  0
  1 14  1  0
  2 15  1  0
  3 16  1  0
  3 17  1  0
  5 18  1  0
  6 19  1  0
  7 20  1  0
  9 21  1  0
 10 22  1  0
M  END
>  <Energy>  (584) 
8.8118193526732931

>  <compound_id>  (584) 
84655

>  <target_id>  (584) 
1

>  <reference_id>  (584) 
97

>  <inspiration_ids>  (584) 
[120, 97]

>  <energy_score>  (584) 
-13.212435719765836

>  <distance_score>  (584) 
3.0007126482310498

>  <path>  (584) 
/opt/xchem-fragalysis-2/maxwin/BulkDock/SCRATCH/511020/C84655-P97/C84655-P97.minimised.mol

>  <scratch_subdir>  (584) 
/opt/xchem-fragalysis-2/maxwin/BulkDock/SCRATCH/511020/C84655-P97

>  <fragmenstein_runtime>  (584) 
4.4786765575408936

>  <fragmenstein_outcome>  (584) 
too moved

>  <fragmenstein_mode>  (584) 
expansion

>  <fragmenstein_error>  (584) 


$$$$
C84656-P120
     RDKit          3D

 40 40  0  0  0  0  0  0  0  0999 V2000
   12.7874   -3.7994   16.7417 C   0  0  0  0  0  0  0  0  0  0  0  0
   13.8352   -2.7686   17.0663 C   0  0  0  0  0  0  0  0  0  0  0  0
   14.7596   -3.2147   18.2081 C   0  0  0  0  0  0  0  0  0  0  0  0
   15.7374   -2.1169   18.6962 C   0  0  0  0  0  0  0  0  0  0  0  0
   16.6941   -1.7630   17.5305 C   0  0  0  0  0  0  0  0  0  0  0  0
   17.6788   -2.3515   17.3179 O   0  0  0  0  0  0  0  0  0  0  0  0
   16.0304   -0.6004   16.7488 N   0  0  0  0  0  0  0  0  0  0  0  0
   16.3932    0.0116   15.4945 C   0  0  0  0  0  0  0  0  0  0  0  0
   15.2549    0.8155   14.8631 C   0  0  0  0  0  0  0  0  0  0  0  0
   13.9967    0.0169   14.6617 C   0  0  0  0  0  0  0  0  0  0  0  0
   12.7998    0.1227   15.3426 C   0  0  0  0  0  0  0  0  0  0  0  0
   11.8376   -0.8307   14.9059 C   0  0  0  0  0  0  0  0  0  0  0  0
   12.3420   -1.6575   13.9310 C   0  0  0  0  0  0  0  0  0  0  0  0
   13.9146   -1.1886   13.4518 S   0  0  0  0  0  0  0  0  0  0  0  0
   16.5661   -2.5645   19.9382 C   0  0  0  0  0  0  0  0  0  0  0  0
   17.4353   -1.4072   20.4545 C   0  0  0  0  0  0  0  0  0  0  0  0
   15.6901   -3.0634   21.0936 C   0  0  0  0  0  0  0  0  0  0  0  0
   11.9722   -3.3851   16.1468 H   0  0  0  0  0  0  0  0  0  0  0  0
   13.2276   -4.6176   16.1778 H   0  0  0  0  0  0  0  0  0  0  0  0
   12.3626   -4.2244   17.6487 H   0  0  0  0  0  0  0  0  0  0  0  0
   14.4236   -2.5829   16.1657 H   0  0  0  0  0  0  0  0  0  0  0  0
   13.3432   -1.8372   17.3574 H   0  0  0  0  0  0  0  0  0  0  0  0
   14.1211   -3.5303   19.0398 H   0  0  0  0  0  0  0  0  0  0  0  0
   15.3311   -4.0930   17.8869 H   0  0  0  0  0  0  0  0  0  0  0  0
   15.1572   -1.2333   18.9901 H   0  0  0  0  0  0  0  0  0  0  0  0
   15.2221   -0.2686   17.2584 H   0  0  0  0  0  0  0  0  0  0  0  0
   17.2508    0.6636   15.6903 H   0  0  0  0  0  0  0  0  0  0  0  0
   16.7412   -0.7868   14.8303 H   0  0  0  0  0  0  0  0  0  0  0  0
   15.0262    1.6737   15.5085 H   0  0  0  0  0  0  0  0  0  0  0  0
   15.5891    1.2300   13.9041 H   0  0  0  0  0  0  0  0  0  0  0  0
   12.6210    0.8547   16.1199 H   0  0  0  0  0  0  0  0  0  0  0  0
   10.8298   -0.9271   15.2885 H   0  0  0  0  0  0  0  0  0  0  0  0
   11.8398   -2.4811   13.4426 H   0  0  0  0  0  0  0  0  0  0  0  0
   17.2373   -3.3848   19.6522 H   0  0  0  0  0  0  0  0  0  0  0  0
   18.1435   -1.0623   19.6951 H   0  0  0  0  0  0  0  0  0  0  0  0
   16.8179   -0.5536   20.7549 H   0  0  0  0  0  0  0  0  0  0  0  0
   18.0225   -1.7211   21.3245 H   0  0  0  0  0  0  0  0  0  0  0  0
   15.2110   -4.0163   20.8494 H   0  0  0  0  0  0  0  0  0  0  0  0
   16.2909   -3.2363   21.9934 H   0  0  0  0  0  0  0  0  0  0  0  0
   14.9101   -2.3363   21.3431 H   0  0  0  0  0  0  0  0  0  0  0  0
  1  2  1  0
  2  3  1  0
  3  4  1  0
  4  5  1  0
  5  6  2  0
  5  7  1  0
  7  8  1  0
  8  9  1  0
  9 10  1  0
 10 11  2  0
 11 12  1  0
 12 13  2  0
 13 14  1  0
  4 15  1  0
 15 16  1  0
 15 17  1  0
 14 10  1  0
  1 18  1  0
  1 19  1  0
  1 20  1  0
  2 21  1  0
  2 22  1  0
  3 23  1  0
  3 24  1  0
  4 25  1  0
  7 26  1  0
  8 27  1  0
  8 28  1  0
  9 29  1  0
  9 30  1  0
 11 31  1  0
 12 32  1  0
 13 33  1  0
 15 34  1  0
 16 35  1  0
 16 36  1  0
 16 37  1  0
 17 38  1  0
 17 39  1  0
 17 40  1  0
M  END
>  <Energy>  (585) 
22.328291117163147

>  <compound_id>  (585) 
84656

>  <target_id>  (585) 
1

>  <reference_id>  (585) 
120

>  <inspiration_ids>  (585) 
[120, 97]

>  <energy_score>  (585) 
-43.72431448140921

>  <distance_score>  (585) 
2.6676462579432147

>  <path>  (585) 
/opt/xchem-fragalysis-2/maxwin/BulkDock/SCRATCH/511020/C84656-P120/C84656-P120.minimised.mol

>  <scratch_subdir>  (585) 
/opt/xchem-fragalysis-2/maxwin/BulkDock/SCRATCH/511020/C84656-P120

>  <fragmenstein_runtime>  (585) 
5.465589761734009

>  <fragmenstein_outcome>  (585) 
too moved

>  <fragmenstein_mode>  (585) 
expansion

>  <fragmenstein_error>  (585) 


$$$$
C84656-P97
     RDKit          3D

 40 40  0  0  0  0  0  0  0  0999 V2000
   12.8995   -3.0488   16.5425 C   0  0  0  0  0  0  0  0  0  0  0  0
   13.5098   -4.1591   17.3514 C   0  0  0  0  0  0  0  0  0  0  0  0
   15.0448   -4.0864   17.4362 C   0  0  0  0  0  0  0  0  0  0  0  0
   15.5802   -2.9669   18.3661 C   0  0  0  0  0  0  0  0  0  0  0  0
   16.6842   -2.1200   17.6638 C   0  0  0  0  0  0  0  0  0  0  0  0
   17.7898   -2.0652   18.0301 O   0  0  0  0  0  0  0  0  0  0  0  0
   15.9835   -1.4110   16.4770 N   0  0  0  0  0  0  0  0  0  0  0  0
   16.5230   -0.5635   15.4414 C   0  0  0  0  0  0  0  0  0  0  0  0
   15.5279    0.5023   14.9650 C   0  0  0  0  0  0  0  0  0  0  0  0
   14.1947   -0.0763   14.5667 C   0  0  0  0  0  0  0  0  0  0  0  0
   13.9301   -1.1656   13.7614 C   0  0  0  0  0  0  0  0  0  0  0  0
   12.5433   -1.4860   13.7263 C   0  0  0  0  0  0  0  0  0  0  0  0
   11.7862   -0.6094   14.4647 C   0  0  0  0  0  0  0  0  0  0  0  0
   12.7449    0.6222   15.1534 S   0  0  0  0  0  0  0  0  0  0  0  0
   16.0622   -3.4731   19.7598 C   0  0  0  0  0  0  0  0  0  0  0  0
   14.8854   -3.9400   20.6227 C   0  0  0  0  0  0  0  0  0  0  0  0
   17.1235   -4.5805   19.7166 C   0  0  0  0  0  0  0  0  0  0  0  0
   13.3920   -3.0279   15.5753 H   0  0  0  0  0  0  0  0  0  0  0  0
   13.0049   -2.0780   17.0273 H   0  0  0  0  0  0  0  0  0  0  0  0
   11.8359   -3.2361   16.3723 H   0  0  0  0  0  0  0  0  0  0  0  0
   13.0746   -4.1834   18.3536 H   0  0  0  0  0  0  0  0  0  0  0  0
   13.2316   -5.0947   16.8613 H   0  0  0  0  0  0  0  0  0  0  0  0
   15.3963   -5.0625   17.7800 H   0  0  0  0  0  0  0  0  0  0  0  0
   15.4488   -3.9852   16.4214 H   0  0  0  0  0  0  0  0  0  0  0  0
   14.7738   -2.2484   18.5700 H   0  0  0  0  0  0  0  0  0  0  0  0
   14.9952   -1.6201   16.4946 H   0  0  0  0  0  0  0  0  0  0  0  0
   16.8085   -1.2236   14.6151 H   0  0  0  0  0  0  0  0  0  0  0  0
   17.4392   -0.0985   15.8194 H   0  0  0  0  0  0  0  0  0  0  0  0
   15.3949    1.2360   15.7703 H   0  0  0  0  0  0  0  0  0  0  0  0
   15.9546    1.0406   14.1104 H   0  0  0  0  0  0  0  0  0  0  0  0
   14.6965   -1.7459   13.2595 H   0  0  0  0  0  0  0  0  0  0  0  0
   12.1158   -2.3313   13.2032 H   0  0  0  0  0  0  0  0  0  0  0  0
   10.7125   -0.6166   14.5952 H   0  0  0  0  0  0  0  0  0  0  0  0
   16.5154   -2.6166   20.2780 H   0  0  0  0  0  0  0  0  0  0  0  0
   15.2196   -4.1611   21.6422 H   0  0  0  0  0  0  0  0  0  0  0  0
   14.1172   -3.1640   20.6871 H   0  0  0  0  0  0  0  0  0  0  0  0
   14.4238   -4.8479   20.2213 H   0  0  0  0  0  0  0  0  0  0  0  0
   17.9497   -4.3356   19.0445 H   0  0  0  0  0  0  0  0  0  0  0  0
   16.7061   -5.5424   19.4038 H   0  0  0  0  0  0  0  0  0  0  0  0
   17.5490   -4.7289   20.7158 H   0  0  0  0  0  0  0  0  0  0  0  0
  1  2  1  0
  2  3  1  0
  3  4  1  0
  4  5  1  0
  5  6  2  0
  5  7  1  0
  7  8  1  0
  8  9  1  0
  9 10  1  0
 10 11  2  0
 11 12  1  0
 12 13  2  0
 13 14  1  0
  4 15  1  0
 15 16  1  0
 15 17  1  0
 14 10  1  0
  1 18  1  0
  1 19  1  0
  1 20  1  0
  2 21  1  0
  2 22  1  0
  3 23  1  0
  3 24  1  0
  4 25  1  0
  7 26  1  0
  8 27  1  0
  8 28  1  0
  9 29  1  0
  9 30  1  0
 11 31  1  0
 12 32  1  0
 13 33  1  0
 15 34  1  0
 16 35  1  0
 16 36  1  0
 16 37  1  0
 17 38  1  0
 17 39  1  0
 17 40  1  0
M  END
>  <Energy>  (586) 
25.52868645034734

>  <compound_id>  (586) 
84656

>  <target_id>  (586) 
1

>  <reference_id>  (586) 
97

>  <inspiration_ids>  (586) 
[120, 97]

>  <energy_score>  (586) 
-40.523919148225914

>  <distance_score>  (586) 
2.7512774662782373

>  <path>  (586) 
/opt/xchem-fragalysis-2/maxwin/BulkDock/SCRATCH/511020/C84656-P97/C84656-P97.minimised.mol

>  <scratch_subdir>  (586) 
/opt/xchem-fragalysis-2/maxwin/BulkDock/SCRATCH/511020/C84656-P97

>  <fragmenstein_runtime>  (586) 
6.048985958099365

>  <fragmenstein_outcome>  (586) 
too moved

>  <fragmenstein_mode>  (586) 
expansion

>  <fragmenstein_error>  (586) 


$$$$
C84661-P120
     RDKit          3D

 46 46  0  0  0  0  0  0  0  0999 V2000
   16.2563    8.2651   11.1647 C   0  0  0  0  0  0  0  0  0  0  0  0
   15.3921    7.0156   11.2421 C   0  0  0  0  0  0  0  0  0  0  0  0
   15.1403    6.6014   12.6924 C   0  0  0  0  0  0  0  0  0  0  0  0
   14.1813    5.4154   12.8290 C   0  0  0  0  0  0  0  0  0  0  0  0
   14.7402    4.1112   12.2534 C   0  0  0  0  0  0  0  0  0  0  0  0
   13.7930    2.9413   12.5222 C   0  0  0  0  0  0  0  0  0  0  0  0
   14.2522    1.6352   11.8699 C   0  0  0  0  0  0  0  0  0  0  0  0
   15.5294    1.0820   12.4797 C   0  0  0  0  0  0  0  0  0  0  0  0
   15.8502   -0.3305   11.9770 C   0  0  0  0  0  0  0  0  0  0  0  0
   17.0869   -0.9476   12.6411 C   0  0  0  0  0  0  0  0  0  0  0  0
   16.7892   -1.3813   14.0729 C   0  0  0  0  0  0  0  0  0  0  0  0
   16.4801   -2.4722   14.3620 O   0  0  0  0  0  0  0  0  0  0  0  0
   16.8855   -0.0896   14.9500 N   0  0  0  0  0  0  0  0  0  0  0  0
   16.7252    0.0789   16.2659 N   0  0  0  0  0  0  0  0  0  0  0  0
   15.8090   -0.5763   16.9175 C   0  0  0  0  0  0  0  0  0  0  0  0
   14.6886   -1.3734   16.4798 C   0  0  0  0  0  0  0  0  0  0  0  0
   13.7897   -1.1909   15.4515 C   0  0  0  0  0  0  0  0  0  0  0  0
   12.7891   -2.2063   15.4299 C   0  0  0  0  0  0  0  0  0  0  0  0
   12.9547   -3.1328   16.4350 C   0  0  0  0  0  0  0  0  0  0  0  0
   14.3018   -2.7699   17.4154 S   0  0  0  0  0  0  0  0  0  0  0  0
   16.4279    8.5429   10.1200 H   0  0  0  0  0  0  0  0  0  0  0  0
   17.2299    8.0982   11.6365 H   0  0  0  0  0  0  0  0  0  0  0  0
   15.7716    9.1095   11.6650 H   0  0  0  0  0  0  0  0  0  0  0  0
   15.8941    6.2094   10.6969 H   0  0  0  0  0  0  0  0  0  0  0  0
   14.4379    7.2070   10.7377 H   0  0  0  0  0  0  0  0  0  0  0  0
   16.0931    6.3623   13.1804 H   0  0  0  0  0  0  0  0  0  0  0  0
   14.7116    7.4514   13.2379 H   0  0  0  0  0  0  0  0  0  0  0  0
   13.9655    5.2720   13.8951 H   0  0  0  0  0  0  0  0  0  0  0  0
   13.2277    5.6564   12.3436 H   0  0  0  0  0  0  0  0  0  0  0  0
   14.8886    4.2116   11.1726 H   0  0  0  0  0  0  0  0  0  0  0  0
   15.7197    3.9122   12.7020 H   0  0  0  0  0  0  0  0  0  0  0  0
   13.6738    2.7961   13.6029 H   0  0  0  0  0  0  0  0  0  0  0  0
   12.7997    3.1885   12.1268 H   0  0  0  0  0  0  0  0  0  0  0  0
   14.3846    1.7810   10.7911 H   0  0  0  0  0  0  0  0  0  0  0  0
   13.4473    0.8992   11.9901 H   0  0  0  0  0  0  0  0  0  0  0  0
   15.3740    1.0813   13.5586 H   0  0  0  0  0  0  0  0  0  0  0  0
   16.3763    1.7429   12.2655 H   0  0  0  0  0  0  0  0  0  0  0  0
   14.9839   -0.9841   12.1397 H   0  0  0  0  0  0  0  0  0  0  0  0
   16.0190   -0.2884   10.8941 H   0  0  0  0  0  0  0  0  0  0  0  0
   17.9432   -0.2652   12.6137 H   0  0  0  0  0  0  0  0  0  0  0  0
   17.3868   -1.8461   12.0881 H   0  0  0  0  0  0  0  0  0  0  0  0
   17.2667    0.6696   14.3958 H   0  0  0  0  0  0  0  0  0  0  0  0
   15.8843   -0.4715   18.0156 H   0  0  0  0  0  0  0  0  0  0  0  0
   13.8357   -0.3668   14.7529 H   0  0  0  0  0  0  0  0  0  0  0  0
   11.9883   -2.2644   14.7005 H   0  0  0  0  0  0  0  0  0  0  0  0
   12.3487   -4.0075   16.6349 H   0  0  0  0  0  0  0  0  0  0  0  0
  1  2  1  0
  2  3  1  0
  3  4  1  0
  4  5  1  0
  5  6  1  0
  6  7  1  0
  7  8  1  0
  8  9  1  0
  9 10  1  0
 10 11  1  0
 11 12  2  0
 11 13  1  0
 13 14  1  0
 14 15  2  3
 15 16  1  0
 16 17  2  0
 17 18  1  0
 18 19  2  0
 19 20  1  0
 20 16  1  0
  1 21  1  0
  1 22  1  0
  1 23  1  0
  2 24  1  0
  2 25  1  0
  3 26  1  0
  3 27  1  0
  4 28  1  0
  4 29  1  0
  5 30  1  0
  5 31  1  0
  6 32  1  0
  6 33  1  0
  7 34  1  0
  7 35  1  0
  8 36  1  0
  8 37  1  0
  9 38  1  0
  9 39  1  0
 10 40  1  0
 10 41  1  0
 13 42  1  0
 15 43  1  0
 17 44  1  0
 18 45  1  0
 19 46  1  0
M  END
>  <Energy>  (587) 
77.32344363052313

>  <compound_id>  (587) 
84661

>  <target_id>  (587) 
1

>  <reference_id>  (587) 
120

>  <inspiration_ids>  (587) 
[120, 97]

>  <energy_score>  (587) 
-8.89097285472333

>  <distance_score>  (587) 
1.967731350348556

>  <path>  (587) 
/opt/xchem-fragalysis-2/maxwin/BulkDock/SCRATCH/511020/C84661-P120/C84661-P120.minimised.mol

>  <scratch_subdir>  (587) 
/opt/xchem-fragalysis-2/maxwin/BulkDock/SCRATCH/511020/C84661-P120

>  <fragmenstein_runtime>  (587) 
14.947680234909058

>  <fragmenstein_outcome>  (587) 
too moved

>  <fragmenstein_mode>  (587) 
expansion

>  <fragmenstein_error>  (587) 


$$$$
C84661-P97
     RDKit          3D

 46 46  0  0  0  0  0  0  0  0999 V2000
    9.5559    5.4411   12.9736 C   0  0  0  0  0  0  0  0  0  0  0  0
   10.7967    4.7333   12.4506 C   0  0  0  0  0  0  0  0  0  0  0  0
   11.0707    3.4453   13.2262 C   0  0  0  0  0  0  0  0  0  0  0  0
   12.2979    2.6724   12.7312 C   0  0  0  0  0  0  0  0  0  0  0  0
   13.5803    3.5071   12.7680 C   0  0  0  0  0  0  0  0  0  0  0  0
   14.8309    2.6329   12.7861 C   0  0  0  0  0  0  0  0  0  0  0  0
   16.0665    3.5266   12.8496 C   0  0  0  0  0  0  0  0  0  0  0  0
   17.3923    2.7981   13.0485 C   0  0  0  0  0  0  0  0  0  0  0  0
   17.8530    2.0144   11.8141 C   0  0  0  0  0  0  0  0  0  0  0  0
   18.4212    0.6415   12.1714 C   0  0  0  0  0  0  0  0  0  0  0  0
   17.2810   -0.2413   12.6596 C   0  0  0  0  0  0  0  0  0  0  0  0
   16.4447   -0.6381   11.9394 O   0  0  0  0  0  0  0  0  0  0  0  0
   17.4291   -0.3751   14.2150 N   0  0  0  0  0  0  0  0  0  0  0  0
   16.5926   -0.9006   15.1304 N   0  0  0  0  0  0  0  0  0  0  0  0
   15.3513   -0.9782   14.7658 C   0  0  0  0  0  0  0  0  0  0  0  0
   14.3608   -1.7261   15.5009 C   0  0  0  0  0  0  0  0  0  0  0  0
   13.0337   -1.8809   15.1571 C   0  0  0  0  0  0  0  0  0  0  0  0
   12.3814   -2.8440   15.9747 C   0  0  0  0  0  0  0  0  0  0  0  0
   13.2051   -3.3487   16.9534 C   0  0  0  0  0  0  0  0  0  0  0  0
   14.7647   -2.6627   16.8819 S   0  0  0  0  0  0  0  0  0  0  0  0
    9.3625    6.3468   12.3903 H   0  0  0  0  0  0  0  0  0  0  0  0
    9.6854    5.7332   14.0207 H   0  0  0  0  0  0  0  0  0  0  0  0
    8.6736    4.7977   12.9057 H   0  0  0  0  0  0  0  0  0  0  0  0
   11.6456    5.4203   12.5348 H   0  0  0  0  0  0  0  0  0  0  0  0
   10.6697    4.5059   11.3873 H   0  0  0  0  0  0  0  0  0  0  0  0
   11.2038    3.6834   14.2891 H   0  0  0  0  0  0  0  0  0  0  0  0
   10.1974    2.7854   13.1619 H   0  0  0  0  0  0  0  0  0  0  0  0
   12.4118    1.7834   13.3640 H   0  0  0  0  0  0  0  0  0  0  0  0
   12.1253    2.3116   11.7099 H   0  0  0  0  0  0  0  0  0  0  0  0
   13.6068    4.1790   11.9018 H   0  0  0  0  0  0  0  0  0  0  0  0
   13.5777    4.1370   13.6666 H   0  0  0  0  0  0  0  0  0  0  0  0
   14.8088    1.9747   13.6618 H   0  0  0  0  0  0  0  0  0  0  0  0
   14.8565    1.9975   11.8946 H   0  0  0  0  0  0  0  0  0  0  0  0
   15.9510    4.2263   13.6880 H   0  0  0  0  0  0  0  0  0  0  0  0
   16.1234    4.1430   11.9434 H   0  0  0  0  0  0  0  0  0  0  0  0
   17.3147    2.1724   13.9411 H   0  0  0  0  0  0  0  0  0  0  0  0
   18.1639    3.5438   13.2806 H   0  0  0  0  0  0  0  0  0  0  0  0
   17.0341    1.8947   11.0954 H   0  0  0  0  0  0  0  0  0  0  0  0
   18.6286    2.5933   11.2977 H   0  0  0  0  0  0  0  0  0  0  0  0
   18.8457    0.1650   11.2802 H   0  0  0  0  0  0  0  0  0  0  0  0
   19.2327    0.7289   12.8994 H   0  0  0  0  0  0  0  0  0  0  0  0
   18.3187    0.0164   14.5067 H   0  0  0  0  0  0  0  0  0  0  0  0
   14.9833   -0.5162   13.8339 H   0  0  0  0  0  0  0  0  0  0  0  0
   12.5672   -1.3926   14.3083 H   0  0  0  0  0  0  0  0  0  0  0  0
   11.3595   -3.1731   15.8301 H   0  0  0  0  0  0  0  0  0  0  0  0
   12.9630   -4.0876   17.7060 H   0  0  0  0  0  0  0  0  0  0  0  0
  1  2  1  0
  2  3  1  0
  3  4  1  0
  4  5  1  0
  5  6  1  0
  6  7  1  0
  7  8  1  0
  8  9  1  0
  9 10  1  0
 10 11  1  0
 11 12  2  0
 11 13  1  0
 13 14  1  0
 14 15  2  3
 15 16  1  0
 16 17  2  0
 17 18  1  0
 18 19  2  0
 19 20  1  0
 20 16  1  0
  1 21  1  0
  1 22  1  0
  1 23  1  0
  2 24  1  0
  2 25  1  0
  3 26  1  0
  3 27  1  0
  4 28  1  0
  4 29  1  0
  5 30  1  0
  5 31  1  0
  6 32  1  0
  6 33  1  0
  7 34  1  0
  7 35  1  0
  8 36  1  0
  8 37  1  0
  9 38  1  0
  9 39  1  0
 10 40  1  0
 10 41  1  0
 13 42  1  0
 15 43  1  0
 17 44  1  0
 18 45  1  0
 19 46  1  0
M  END
>  <Energy>  (588) 
70.055576573188816

>  <compound_id>  (588) 
84661

>  <target_id>  (588) 
1

>  <reference_id>  (588) 
97

>  <inspiration_ids>  (588) 
[120, 97]

>  <energy_score>  (588) 
-16.158839912056436

>  <distance_score>  (588) 
2.255337462017919

>  <path>  (588) 
/opt/xchem-fragalysis-2/maxwin/BulkDock/SCRATCH/511020/C84661-P97/C84661-P97.minimised.mol

>  <scratch_subdir>  (588) 
/opt/xchem-fragalysis-2/maxwin/BulkDock/SCRATCH/511020/C84661-P97

>  <fragmenstein_runtime>  (588) 
14.13105034828186

>  <fragmenstein_outcome>  (588) 
too moved

>  <fragmenstein_mode>  (588) 
expansion

>  <fragmenstein_error>  (588) 


$$$$
C84663-P120
     RDKit          3D

 31 31  0  0  0  0  0  0  0  0999 V2000
   13.4178   -3.3245   17.0037 C   0  0  0  0  0  0  0  0  0  0  0  0
   14.2150   -2.3822   17.8986 C   0  0  0  0  0  0  0  0  0  0  0  0
   15.7308   -2.3968   17.7715 C   0  0  0  0  0  0  0  0  0  0  0  0
   16.4793   -4.1226   18.2979 Br  0  0  0  0  0  0  0  0  0  0  0  0
   16.2950   -2.0478   16.3846 C   0  0  0  0  0  0  0  0  0  0  0  0
   16.2132   -2.7560   15.4486 O   0  0  0  0  0  0  0  0  0  0  0  0
   17.0176   -0.7142   16.5529 N   0  0  0  0  0  0  0  0  0  0  0  0
   17.9092    0.0284   15.6207 C   0  0  0  0  0  0  0  0  0  0  0  0
   16.0943    0.4705   16.1959 C   0  0  0  0  0  0  0  0  0  0  0  0
   15.3072    0.5908   14.8507 C   0  0  0  0  0  0  0  0  0  0  0  0
   14.0221   -0.1849   14.7738 C   0  0  0  0  0  0  0  0  0  0  0  0
   12.8712   -0.0433   15.5237 C   0  0  0  0  0  0  0  0  0  0  0  0
   11.8433   -0.9463   15.1265 C   0  0  0  0  0  0  0  0  0  0  0  0
   12.2448   -1.7612   14.0959 C   0  0  0  0  0  0  0  0  0  0  0  0
   13.8019   -1.3416   13.5324 S   0  0  0  0  0  0  0  0  0  0  0  0
   13.4276   -4.3307   17.4119 H   0  0  0  0  0  0  0  0  0  0  0  0
   13.7990   -3.3573   15.9854 H   0  0  0  0  0  0  0  0  0  0  0  0
   12.3686   -3.0214   16.9768 H   0  0  0  0  0  0  0  0  0  0  0  0
   13.9494   -2.6058   18.9395 H   0  0  0  0  0  0  0  0  0  0  0  0
   13.8722   -1.3613   17.7110 H   0  0  0  0  0  0  0  0  0  0  0  0
   16.1463   -1.7118   18.5199 H   0  0  0  0  0  0  0  0  0  0  0  0
   18.8402   -0.5561   15.6991 H   0  0  0  0  0  0  0  0  0  0  0  0
   17.6890   -0.0982   14.5569 H   0  0  0  0  0  0  0  0  0  0  0  0
   18.2521    1.0271   15.9284 H   0  0  0  0  0  0  0  0  0  0  0  0
   15.3124    0.3578   16.9632 H   0  0  0  0  0  0  0  0  0  0  0  0
   16.5053    1.4499   16.5037 H   0  0  0  0  0  0  0  0  0  0  0  0
   15.9213    0.3909   13.9690 H   0  0  0  0  0  0  0  0  0  0  0  0
   15.0224    1.6490   14.7552 H   0  0  0  0  0  0  0  0  0  0  0  0
   12.7649    0.6810   16.3212 H   0  0  0  0  0  0  0  0  0  0  0  0
   10.8598   -1.0120   15.5721 H   0  0  0  0  0  0  0  0  0  0  0  0
   11.6794   -2.5463   13.6127 H   0  0  0  0  0  0  0  0  0  0  0  0
  1  2  1  0
  2  3  1  0
  3  4  1  0
  3  5  1  0
  5  6  2  0
  5  7  1  0
  7  8  1  0
  7  9  1  0
  9 10  1  0
 10 11  1  0
 11 12  2  0
 12 13  1  0
 13 14  2  0
 14 15  1  0
 15 11  1  0
  1 16  1  0
  1 17  1  0
  1 18  1  0
  2 19  1  0
  2 20  1  0
  3 21  1  0
  8 22  1  0
  8 23  1  0
  8 24  1  0
  9 25  1  0
  9 26  1  0
 10 27  1  0
 10 28  1  0
 12 29  1  0
 13 30  1  0
 14 31  1  0
M  END
>  <Energy>  (589) 
121.1714742193015

>  <compound_id>  (589) 
84663

>  <target_id>  (589) 
1

>  <reference_id>  (589) 
120

>  <inspiration_ids>  (589) 
[120, 97]

>  <energy_score>  (589) 
39.40679191920455

>  <distance_score>  (589) 
2.334528567468276

>  <path>  (589) 
/opt/xchem-fragalysis-2/maxwin/BulkDock/SCRATCH/511020/C84663-P120/C84663-P120.minimised.mol

>  <scratch_subdir>  (589) 
/opt/xchem-fragalysis-2/maxwin/BulkDock/SCRATCH/511020/C84663-P120

>  <fragmenstein_runtime>  (589) 
2.6420841217041016

>  <fragmenstein_outcome>  (589) 
too moved

>  <fragmenstein_mode>  (589) 
expansion

>  <fragmenstein_error>  (589) 


$$$$
C84663-P97
     RDKit          3D

 31 31  0  0  0  0  0  0  0  0999 V2000
   13.2938   -3.7856   16.8459 C   0  0  0  0  0  0  0  0  0  0  0  0
   14.4271   -3.9079   17.8519 C   0  0  0  0  0  0  0  0  0  0  0  0
   15.1859   -2.5943   18.0613 C   0  0  0  0  0  0  0  0  0  0  0  0
   16.3290   -2.8514   19.6569 Br  0  0  0  0  0  0  0  0  0  0  0  0
   16.1382   -2.1976   16.9115 C   0  0  0  0  0  0  0  0  0  0  0  0
   16.3682   -2.9072   15.9994 O   0  0  0  0  0  0  0  0  0  0  0  0
   16.7297   -0.8359   17.2787 N   0  0  0  0  0  0  0  0  0  0  0  0
   17.8358   -0.0578   16.6509 C   0  0  0  0  0  0  0  0  0  0  0  0
   15.9178    0.3121   16.6511 C   0  0  0  0  0  0  0  0  0  0  0  0
   15.4485    0.2384   15.1622 C   0  0  0  0  0  0  0  0  0  0  0  0
   14.1130   -0.4210   14.9432 C   0  0  0  0  0  0  0  0  0  0  0  0
   12.9367   -0.3043   15.6561 C   0  0  0  0  0  0  0  0  0  0  0  0
   11.8930   -1.1178   15.1309 C   0  0  0  0  0  0  0  0  0  0  0  0
   12.3065   -1.8370   14.0368 C   0  0  0  0  0  0  0  0  0  0  0  0
   13.8874   -1.4057   13.5591 S   0  0  0  0  0  0  0  0  0  0  0  0
   13.6871   -3.5332   15.8643 H   0  0  0  0  0  0  0  0  0  0  0  0
   12.5845   -3.0171   17.1535 H   0  0  0  0  0  0  0  0  0  0  0  0
   12.7521   -4.7320   16.7657 H   0  0  0  0  0  0  0  0  0  0  0  0
   13.9912   -4.2474   18.8002 H   0  0  0  0  0  0  0  0  0  0  0  0
   15.1120   -4.6986   17.5217 H   0  0  0  0  0  0  0  0  0  0  0  0
   14.5095   -1.7722   18.3062 H   0  0  0  0  0  0  0  0  0  0  0  0
   18.7112   -0.6879   16.8735 H   0  0  0  0  0  0  0  0  0  0  0  0
   17.8790   -0.0199   15.5573 H   0  0  0  0  0  0  0  0  0  0  0  0
   18.0863    0.8820   17.1651 H   0  0  0  0  0  0  0  0  0  0  0  0
   15.0030    0.2623   17.2594 H   0  0  0  0  0  0  0  0  0  0  0  0
   16.2470    1.3347   16.9157 H   0  0  0  0  0  0  0  0  0  0  0  0
   16.2003   -0.2379   14.5248 H   0  0  0  0  0  0  0  0  0  0  0  0
   15.3489    1.2709   14.8005 H   0  0  0  0  0  0  0  0  0  0  0  0
   12.8267    0.3367   16.5195 H   0  0  0  0  0  0  0  0  0  0  0  0
   10.8916   -1.1937   15.5314 H   0  0  0  0  0  0  0  0  0  0  0  0
   11.7376   -2.5522   13.4600 H   0  0  0  0  0  0  0  0  0  0  0  0
  1  2  1  0
  2  3  1  0
  3  4  1  0
  3  5  1  0
  5  6  2  0
  5  7  1  0
  7  8  1  0
  7  9  1  0
  9 10  1  0
 10 11  1  0
 11 12  2  0
 12 13  1  0
 13 14  2  0
 14 15  1  0
 15 11  1  0
  1 16  1  0
  1 17  1  0
  1 18  1  0
  2 19  1  0
  2 20  1  0
  3 21  1  0
  8 22  1  0
  8 23  1  0
  8 24  1  0
  9 25  1  0
  9 26  1  0
 10 27  1  0
 10 28  1  0
 12 29  1  0
 13 30  1  0
 14 31  1  0
M  END
>  <Energy>  (590) 
116.56601727889382

>  <compound_id>  (590) 
84663

>  <target_id>  (590) 
1

>  <reference_id>  (590) 
97

>  <inspiration_ids>  (590) 
[120, 97]

>  <energy_score>  (590) 
34.801334978796504

>  <distance_score>  (590) 
2.5813999299061243

>  <path>  (590) 
/opt/xchem-fragalysis-2/maxwin/BulkDock/SCRATCH/511020/C84663-P97/C84663-P97.minimised.mol

>  <scratch_subdir>  (590) 
/opt/xchem-fragalysis-2/maxwin/BulkDock/SCRATCH/511020/C84663-P97

>  <fragmenstein_runtime>  (590) 
2.0644869804382324

>  <fragmenstein_outcome>  (590) 
too moved

>  <fragmenstein_mode>  (590) 
expansion

>  <fragmenstein_error>  (590) 


$$$$
C84665-P120
     RDKit          3D

 34 34  0  0  0  0  0  0  0  0999 V2000
   13.5061    2.4809   17.0841 C   0  0  0  0  0  0  0  0  0  0  0  0
   14.2017    1.4711   16.1821 C   0  0  0  0  0  0  0  0  0  0  0  0
   14.7157    2.1427   14.9032 C   0  0  0  0  0  0  0  0  0  0  0  0
   15.6722    1.2603   14.0804 C   0  0  0  0  0  0  0  0  0  0  0  0
   15.2878    1.0348   12.6111 C   0  0  0  0  0  0  0  0  0  0  0  0
   13.7971    0.8440   12.3998 C   0  0  0  0  0  0  0  0  0  0  0  0
   13.1633    1.5129   11.6801 O   0  0  0  0  0  0  0  0  0  0  0  0
   13.3570   -0.2851   13.3758 N   0  0  0  0  0  0  0  0  0  0  0  0
   12.1504   -0.7139   13.7030 N   0  0  0  0  0  0  0  0  0  0  0  0
   11.9522   -1.5567   14.6672 C   0  0  0  0  0  0  0  0  0  0  0  0
   10.5059   -1.6870   15.0436 C   0  0  0  0  0  0  0  0  0  0  0  0
   12.8777   -2.2949   15.5178 C   0  0  0  0  0  0  0  0  0  0  0  0
   12.5551   -3.2738   16.4455 C   0  0  0  0  0  0  0  0  0  0  0  0
   13.6112   -3.5284   17.3605 C   0  0  0  0  0  0  0  0  0  0  0  0
   14.7768   -2.9164   16.9742 C   0  0  0  0  0  0  0  0  0  0  0  0
   14.5628   -2.0198   15.5467 S   0  0  0  0  0  0  0  0  0  0  0  0
   12.6285    2.9093   16.5895 H   0  0  0  0  0  0  0  0  0  0  0  0
   14.1817    3.2980   17.3565 H   0  0  0  0  0  0  0  0  0  0  0  0
   13.1763    1.9976   18.0074 H   0  0  0  0  0  0  0  0  0  0  0  0
   13.4862    0.6858   15.9381 H   0  0  0  0  0  0  0  0  0  0  0  0
   15.0346    1.0207   16.7330 H   0  0  0  0  0  0  0  0  0  0  0  0
   13.8679    2.5045   14.3123 H   0  0  0  0  0  0  0  0  0  0  0  0
   15.2734    3.0447   15.1895 H   0  0  0  0  0  0  0  0  0  0  0  0
   16.6624    1.7361   14.0835 H   0  0  0  0  0  0  0  0  0  0  0  0
   15.8401    0.3016   14.5741 H   0  0  0  0  0  0  0  0  0  0  0  0
   15.8229    0.1730   12.1979 H   0  0  0  0  0  0  0  0  0  0  0  0
   15.5906    1.9124   12.0267 H   0  0  0  0  0  0  0  0  0  0  0  0
   14.1783   -0.7157   13.7895 H   0  0  0  0  0  0  0  0  0  0  0  0
   10.1267   -2.6705   14.7623 H   0  0  0  0  0  0  0  0  0  0  0  0
    9.9048   -0.8880   14.6026 H   0  0  0  0  0  0  0  0  0  0  0  0
   10.4031   -1.5597   16.1180 H   0  0  0  0  0  0  0  0  0  0  0  0
   11.5717   -3.7130   16.5427 H   0  0  0  0  0  0  0  0  0  0  0  0
   13.5182   -4.1409   18.2477 H   0  0  0  0  0  0  0  0  0  0  0  0
   15.7442   -2.9659   17.4563 H   0  0  0  0  0  0  0  0  0  0  0  0
  1  2  1  0
  2  3  1  0
  3  4  1  0
  4  5  1  0
  5  6  1  0
  6  7  2  0
  6  8  1  0
  8  9  1  0
  9 10  2  3
 10 11  1  0
 10 12  1  0
 12 13  2  0
 13 14  1  0
 14 15  2  0
 15 16  1  0
 16 12  1  0
  1 17  1  0
  1 18  1  0
  1 19  1  0
  2 20  1  0
  2 21  1  0
  3 22  1  0
  3 23  1  0
  4 24  1  0
  4 25  1  0
  5 26  1  0
  5 27  1  0
  8 28  1  0
 11 29  1  0
 11 30  1  0
 11 31  1  0
 13 32  1  0
 14 33  1  0
 15 34  1  0
M  END
>  <Energy>  (591) 
91.388351806479818

>  <compound_id>  (591) 
84665

>  <target_id>  (591) 
1

>  <reference_id>  (591) 
120

>  <inspiration_ids>  (591) 
[120, 97]

>  <energy_score>  (591) 
-7.408820791759808

>  <distance_score>  (591) 
1.9564175473676106

>  <path>  (591) 
/opt/xchem-fragalysis-2/maxwin/BulkDock/SCRATCH/511020/C84665-P120/C84665-P120.minimised.mol

>  <scratch_subdir>  (591) 
/opt/xchem-fragalysis-2/maxwin/BulkDock/SCRATCH/511020/C84665-P120

>  <fragmenstein_runtime>  (591) 
6.219595193862915

>  <fragmenstein_outcome>  (591) 
too moved

>  <fragmenstein_mode>  (591) 
expansion

>  <fragmenstein_error>  (591) 


$$$$
C84665-P97
     RDKit          3D

 34 34  0  0  0  0  0  0  0  0999 V2000
   15.8679    3.8939   15.6512 C   0  0  0  0  0  0  0  0  0  0  0  0
   16.0131    2.9746   14.4480 C   0  0  0  0  0  0  0  0  0  0  0  0
   15.5746    1.5539   14.7765 C   0  0  0  0  0  0  0  0  0  0  0  0
   15.7713    0.5727   13.6164 C   0  0  0  0  0  0  0  0  0  0  0  0
   14.9934    0.8808   12.3341 C   0  0  0  0  0  0  0  0  0  0  0  0
   13.5409    1.3259   12.5110 C   0  0  0  0  0  0  0  0  0  0  0  0
   13.1681    2.3203   11.9541 O   0  0  0  0  0  0  0  0  0  0  0  0
   12.8348    0.4029   13.3633 N   0  0  0  0  0  0  0  0  0  0  0  0
   11.5876    0.4366   13.8490 N   0  0  0  0  0  0  0  0  0  0  0  0
   11.2009   -0.4598   14.7080 C   0  0  0  0  0  0  0  0  0  0  0  0
    9.7680   -0.3508   15.1756 C   0  0  0  0  0  0  0  0  0  0  0  0
   12.0061   -1.4922   15.3393 C   0  0  0  0  0  0  0  0  0  0  0  0
   11.7224   -2.8364   15.4775 C   0  0  0  0  0  0  0  0  0  0  0  0
   12.6716   -3.5111   16.3018 C   0  0  0  0  0  0  0  0  0  0  0  0
   13.6842   -2.6774   16.7134 C   0  0  0  0  0  0  0  0  0  0  0  0
   13.4467   -1.0804   16.1659 S   0  0  0  0  0  0  0  0  0  0  0  0
   14.8262    3.9417   15.9846 H   0  0  0  0  0  0  0  0  0  0  0  0
   16.1891    4.9081   15.3940 H   0  0  0  0  0  0  0  0  0  0  0  0
   16.4815    3.5455   16.4881 H   0  0  0  0  0  0  0  0  0  0  0  0
   15.4169    3.3797   13.6234 H   0  0  0  0  0  0  0  0  0  0  0  0
   17.0595    2.9750   14.1213 H   0  0  0  0  0  0  0  0  0  0  0  0
   16.1569    1.1884   15.6319 H   0  0  0  0  0  0  0  0  0  0  0  0
   14.5296    1.5690   15.1000 H   0  0  0  0  0  0  0  0  0  0  0  0
   16.8389    0.5253   13.3660 H   0  0  0  0  0  0  0  0  0  0  0  0
   15.5147   -0.4346   13.9627 H   0  0  0  0  0  0  0  0  0  0  0  0
   15.5152    1.6802   11.7927 H   0  0  0  0  0  0  0  0  0  0  0  0
   15.0009    0.0048   11.6744 H   0  0  0  0  0  0  0  0  0  0  0  0
   13.4479   -0.3743   13.5902 H   0  0  0  0  0  0  0  0  0  0  0  0
    9.1716    0.1913   14.4384 H   0  0  0  0  0  0  0  0  0  0  0  0
    9.7418    0.2109   16.1134 H   0  0  0  0  0  0  0  0  0  0  0  0
    9.3185   -1.3325   15.3345 H   0  0  0  0  0  0  0  0  0  0  0  0
   10.8587   -3.3158   15.0301 H   0  0  0  0  0  0  0  0  0  0  0  0
   12.6185   -4.5601   16.5690 H   0  0  0  0  0  0  0  0  0  0  0  0
   14.5386   -2.9271   17.3285 H   0  0  0  0  0  0  0  0  0  0  0  0
  1  2  1  0
  2  3  1  0
  3  4  1  0
  4  5  1  0
  5  6  1  0
  6  7  2  0
  6  8  1  0
  8  9  1  0
  9 10  2  3
 10 11  1  0
 10 12  1  0
 12 13  2  0
 13 14  1  0
 14 15  2  0
 15 16  1  0
 16 12  1  0
  1 17  1  0
  1 18  1  0
  1 19  1  0
  2 20  1  0
  2 21  1  0
  3 22  1  0
  3 23  1  0
  4 24  1  0
  4 25  1  0
  5 26  1  0
  5 27  1  0
  8 28  1  0
 11 29  1  0
 11 30  1  0
 11 31  1  0
 13 32  1  0
 14 33  1  0
 15 34  1  0
M  END
>  <Energy>  (592) 
71.310693420284892

>  <compound_id>  (592) 
84665

>  <target_id>  (592) 
1

>  <reference_id>  (592) 
97

>  <inspiration_ids>  (592) 
[120, 97]

>  <energy_score>  (592) 
-20.440131325352326

>  <distance_score>  (592) 
2.1272672245133437

>  <path>  (592) 
/opt/xchem-fragalysis-2/maxwin/BulkDock/SCRATCH/511020/C84665-P97/C84665-P97.minimised.mol

>  <scratch_subdir>  (592) 
/opt/xchem-fragalysis-2/maxwin/BulkDock/SCRATCH/511020/C84665-P97

>  <fragmenstein_runtime>  (592) 
6.652170181274414

>  <fragmenstein_outcome>  (592) 
too moved

>  <fragmenstein_mode>  (592) 
expansion

>  <fragmenstein_error>  (592) 


$$$$
C84667-P120
     RDKit          3D

 39 39  0  0  0  0  0  0  0  0999 V2000
   13.0300   -3.5861   17.0187 C   0  0  0  0  0  0  0  0  0  0  0  0
   14.2917   -3.2955   16.6968 C   0  0  0  0  0  0  0  0  0  0  0  0
   15.4354   -3.2931   17.6784 C   0  0  0  0  0  0  0  0  0  0  0  0
   15.9511   -1.8793   18.0112 C   0  0  0  0  0  0  0  0  0  0  0  0
   16.9335   -1.9211   19.2053 C   0  0  0  0  0  0  0  0  0  0  0  0
   16.3789   -2.1890   20.5830 C   0  0  0  0  0  0  0  0  0  0  0  0
   15.0947   -2.2344   20.9581 C   0  0  0  0  0  0  0  0  0  0  0  0
   16.7001   -1.2604   16.8115 C   0  0  0  0  0  0  0  0  0  0  0  0
   17.1415   -1.8960   15.9246 O   0  0  0  0  0  0  0  0  0  0  0  0
   16.8048    0.2330   17.1022 N   0  0  0  0  0  0  0  0  0  0  0  0
   17.5768    1.3055   16.4085 C   0  0  0  0  0  0  0  0  0  0  0  0
   15.6492    1.0074   16.4535 C   0  0  0  0  0  0  0  0  0  0  0  0
   15.2420    0.6684   14.9848 C   0  0  0  0  0  0  0  0  0  0  0  0
   13.9620   -0.1131   14.8372 C   0  0  0  0  0  0  0  0  0  0  0  0
   12.8033   -0.0887   15.5890 C   0  0  0  0  0  0  0  0  0  0  0  0
   11.8180   -0.9997   15.1135 C   0  0  0  0  0  0  0  0  0  0  0  0
   12.2587   -1.7089   14.0236 C   0  0  0  0  0  0  0  0  0  0  0  0
   13.7939   -1.1746   13.4997 S   0  0  0  0  0  0  0  0  0  0  0  0
   12.2516   -3.6365   16.2658 H   0  0  0  0  0  0  0  0  0  0  0  0
   12.7551   -3.8285   18.0391 H   0  0  0  0  0  0  0  0  0  0  0  0
   14.5545   -3.0887   15.6640 H   0  0  0  0  0  0  0  0  0  0  0  0
   15.1168   -3.8052   18.5936 H   0  0  0  0  0  0  0  0  0  0  0  0
   16.2426   -3.9090   17.2618 H   0  0  0  0  0  0  0  0  0  0  0  0
   15.0981   -1.2341   18.2529 H   0  0  0  0  0  0  0  0  0  0  0  0
   17.4838   -0.9744   19.2759 H   0  0  0  0  0  0  0  0  0  0  0  0
   17.6958   -2.6856   19.0011 H   0  0  0  0  0  0  0  0  0  0  0  0
   17.1334   -2.3471   21.3534 H   0  0  0  0  0  0  0  0  0  0  0  0
   14.8244   -2.4275   21.9931 H   0  0  0  0  0  0  0  0  0  0  0  0
   14.2715   -2.0801   20.2707 H   0  0  0  0  0  0  0  0  0  0  0  0
   17.5692    1.3103   15.3114 H   0  0  0  0  0  0  0  0  0  0  0  0
   18.6177    1.0131   16.6164 H   0  0  0  0  0  0  0  0  0  0  0  0
   17.5052    2.2959   16.8821 H   0  0  0  0  0  0  0  0  0  0  0  0
   14.8187    0.6755   17.0914 H   0  0  0  0  0  0  0  0  0  0  0  0
   15.6037    2.0938   16.6566 H   0  0  0  0  0  0  0  0  0  0  0  0
   15.1008    1.6187   14.4524 H   0  0  0  0  0  0  0  0  0  0  0  0
   16.0512    0.1423   14.4652 H   0  0  0  0  0  0  0  0  0  0  0  0
   12.6570    0.5533   16.4470 H   0  0  0  0  0  0  0  0  0  0  0  0
   10.8395   -1.1487   15.5499 H   0  0  0  0  0  0  0  0  0  0  0  0
   11.7298   -2.4793   13.4807 H   0  0  0  0  0  0  0  0  0  0  0  0
  1  2  2  0
  2  3  1  0
  3  4  1  0
  4  5  1  0
  5  6  1  0
  6  7  2  0
  4  8  1  0
  8  9  2  0
  8 10  1  0
 10 11  1  0
 10 12  1  0
 12 13  1  0
 13 14  1  0
 14 15  2  0
 15 16  1  0
 16 17  2  0
 17 18  1  0
 18 14  1  0
  1 19  1  0
  1 20  1  0
  2 21  1  0
  3 22  1  0
  3 23  1  0
  4 24  1  0
  5 25  1  0
  5 26  1  0
  6 27  1  0
  7 28  1  0
  7 29  1  0
 11 30  1  0
 11 31  1  0
 11 32  1  0
 12 33  1  0
 12 34  1  0
 13 35  1  0
 13 36  1  0
 15 37  1  0
 16 38  1  0
 17 39  1  0
M  END
>  <Energy>  (593) 
115.04231978355753

>  <compound_id>  (593) 
84667

>  <target_id>  (593) 
1

>  <reference_id>  (593) 
120

>  <inspiration_ids>  (593) 
[120, 97]

>  <energy_score>  (593) 
32.64809435615322

>  <distance_score>  (593) 
2.6246404696766286

>  <path>  (593) 
/opt/xchem-fragalysis-2/maxwin/BulkDock/SCRATCH/511020/C84667-P120/C84667-P120.minimised.mol

>  <scratch_subdir>  (593) 
/opt/xchem-fragalysis-2/maxwin/BulkDock/SCRATCH/511020/C84667-P120

>  <fragmenstein_runtime>  (593) 
2.8716814517974854

>  <fragmenstein_outcome>  (593) 
too moved

>  <fragmenstein_mode>  (593) 
expansion

>  <fragmenstein_error>  (593) 


$$$$
C84667-P97
     RDKit          3D

 39 39  0  0  0  0  0  0  0  0999 V2000
   13.0352   -3.7611   16.9881 C   0  0  0  0  0  0  0  0  0  0  0  0
   14.2883   -3.4484   16.6554 C   0  0  0  0  0  0  0  0  0  0  0  0
   15.4689   -3.5586   17.5842 C   0  0  0  0  0  0  0  0  0  0  0  0
   16.0502   -2.1853   17.9777 C   0  0  0  0  0  0  0  0  0  0  0  0
   17.0633   -2.3286   19.1377 C   0  0  0  0  0  0  0  0  0  0  0  0
   16.5400   -2.6507   20.5159 C   0  0  0  0  0  0  0  0  0  0  0  0
   15.2665   -2.6750   20.9274 C   0  0  0  0  0  0  0  0  0  0  0  0
   16.7990   -1.5302   16.7953 C   0  0  0  0  0  0  0  0  0  0  0  0
   17.2238   -2.1381   15.8812 O   0  0  0  0  0  0  0  0  0  0  0  0
   16.9282   -0.0503   17.1412 N   0  0  0  0  0  0  0  0  0  0  0  0
   17.7105    1.0364   16.4818 C   0  0  0  0  0  0  0  0  0  0  0  0
   15.7785    0.7650   16.5318 C   0  0  0  0  0  0  0  0  0  0  0  0
   15.3753    0.5220   15.0408 C   0  0  0  0  0  0  0  0  0  0  0  0
   14.0695   -0.2027   14.8432 C   0  0  0  0  0  0  0  0  0  0  0  0
   12.9039   -0.1634   15.5824 C   0  0  0  0  0  0  0  0  0  0  0  0
   11.9042   -1.0445   15.0831 C   0  0  0  0  0  0  0  0  0  0  0  0
   12.3375   -1.7365   13.9792 C   0  0  0  0  0  0  0  0  0  0  0  0
   13.8767   -1.2055   13.4640 S   0  0  0  0  0  0  0  0  0  0  0  0
   12.2290   -3.7078   16.2659 H   0  0  0  0  0  0  0  0  0  0  0  0
   12.7916   -4.1146   17.9846 H   0  0  0  0  0  0  0  0  0  0  0  0
   14.5160   -3.1238   15.6462 H   0  0  0  0  0  0  0  0  0  0  0  0
   15.1669   -4.1151   18.4788 H   0  0  0  0  0  0  0  0  0  0  0  0
   16.2325   -4.1759   17.0939 H   0  0  0  0  0  0  0  0  0  0  0  0
   15.2317   -1.5211   18.2797 H   0  0  0  0  0  0  0  0  0  0  0  0
   17.6503   -1.4071   19.2408 H   0  0  0  0  0  0  0  0  0  0  0  0
   17.7902   -3.1079   18.8699 H   0  0  0  0  0  0  0  0  0  0  0  0
   17.3108   -2.8730   21.2537 H   0  0  0  0  0  0  0  0  0  0  0  0
   15.0197   -2.9131   21.9586 H   0  0  0  0  0  0  0  0  0  0  0  0
   14.4291   -2.4588   20.2746 H   0  0  0  0  0  0  0  0  0  0  0  0
   17.7088    1.0712   15.3856 H   0  0  0  0  0  0  0  0  0  0  0  0
   18.7479    0.7287   16.6849 H   0  0  0  0  0  0  0  0  0  0  0  0
   17.6485    2.0143   16.9819 H   0  0  0  0  0  0  0  0  0  0  0  0
   14.9426    0.3968   17.1423 H   0  0  0  0  0  0  0  0  0  0  0  0
   15.7398    1.8362   16.8041 H   0  0  0  0  0  0  0  0  0  0  0  0
   15.2789    1.5031   14.5567 H   0  0  0  0  0  0  0  0  0  0  0  0
   16.1676   -0.0122   14.5036 H   0  0  0  0  0  0  0  0  0  0  0  0
   12.7720    0.4616   16.4543 H   0  0  0  0  0  0  0  0  0  0  0  0
   10.9216   -1.1862   15.5121 H   0  0  0  0  0  0  0  0  0  0  0  0
   11.8005   -2.4875   13.4176 H   0  0  0  0  0  0  0  0  0  0  0  0
  1  2  2  0
  2  3  1  0
  3  4  1  0
  4  5  1  0
  5  6  1  0
  6  7  2  0
  4  8  1  0
  8  9  2  0
  8 10  1  0
 10 11  1  0
 10 12  1  0
 12 13  1  0
 13 14  1  0
 14 15  2  0
 15 16  1  0
 16 17  2  0
 17 18  1  0
 18 14  1  0
  1 19  1  0
  1 20  1  0
  2 21  1  0
  3 22  1  0
  3 23  1  0
  4 24  1  0
  5 25  1  0
  5 26  1  0
  6 27  1  0
  7 28  1  0
  7 29  1  0
 11 30  1  0
 11 31  1  0
 11 32  1  0
 12 33  1  0
 12 34  1  0
 13 35  1  0
 13 36  1  0
 15 37  1  0
 16 38  1  0
 17 39  1  0
M  END
>  <Energy>  (594) 
114.90322710272115

>  <compound_id>  (594) 
84667

>  <target_id>  (594) 
1

>  <reference_id>  (594) 
97

>  <inspiration_ids>  (594) 
[120, 97]

>  <energy_score>  (594) 
32.50900167531577

>  <distance_score>  (594) 
2.6154450961837115

>  <path>  (594) 
/opt/xchem-fragalysis-2/maxwin/BulkDock/SCRATCH/511020/C84667-P97/C84667-P97.minimised.mol

>  <scratch_subdir>  (594) 
/opt/xchem-fragalysis-2/maxwin/BulkDock/SCRATCH/511020/C84667-P97

>  <fragmenstein_runtime>  (594) 
4.174871921539307

>  <fragmenstein_outcome>  (594) 
too moved

>  <fragmenstein_mode>  (594) 
expansion

>  <fragmenstein_error>  (594) 


$$$$
C84671-P120
     RDKit          3D

 38 38  0  0  0  0  0  0  0  0999 V2000
   13.8794   -2.0019   17.3351 C   0  0  0  0  0  0  0  0  0  0  0  0
   14.1791   -3.6514   16.7291 S   0  0  0  0  0  0  0  0  0  0  0  0
   15.8086   -3.4654   15.8945 C   0  0  0  0  0  0  0  0  0  0  0  0
   17.0069   -2.7399   16.5594 C   0  0  0  0  0  0  0  0  0  0  0  0
   17.1860   -3.2071   18.0198 C   0  0  0  0  0  0  0  0  0  0  0  0
   18.3036   -3.1265   15.8087 C   0  0  0  0  0  0  0  0  0  0  0  0
   16.8692   -1.1829   16.5213 C   0  0  0  0  0  0  0  0  0  0  0  0
   16.8615   -0.5494   17.5031 O   0  0  0  0  0  0  0  0  0  0  0  0
   16.7358   -0.7411   15.0377 N   0  0  0  0  0  0  0  0  0  0  0  0
   16.4703    0.5599   14.4662 C   0  0  0  0  0  0  0  0  0  0  0  0
   16.8965    0.6187   13.0015 C   0  0  0  0  0  0  0  0  0  0  0  0
   15.0281    1.0512   14.7110 C   0  0  0  0  0  0  0  0  0  0  0  0
   13.8668    0.1063   14.4961 C   0  0  0  0  0  0  0  0  0  0  0  0
   12.6473    0.1609   15.1523 C   0  0  0  0  0  0  0  0  0  0  0  0
   11.7806   -0.9159   14.8135 C   0  0  0  0  0  0  0  0  0  0  0  0
   12.3620   -1.7689   13.9092 C   0  0  0  0  0  0  0  0  0  0  0  0
   13.8687   -1.1715   13.3649 S   0  0  0  0  0  0  0  0  0  0  0  0
   14.2281   -1.9064   18.3658 H   0  0  0  0  0  0  0  0  0  0  0  0
   14.3589   -1.2421   16.7311 H   0  0  0  0  0  0  0  0  0  0  0  0
   12.8053   -1.8274   17.3115 H   0  0  0  0  0  0  0  0  0  0  0  0
   16.1224   -4.4964   15.6939 H   0  0  0  0  0  0  0  0  0  0  0  0
   15.5893   -3.0569   14.9088 H   0  0  0  0  0  0  0  0  0  0  0  0
   18.1061   -2.7964   18.4529 H   0  0  0  0  0  0  0  0  0  0  0  0
   16.3650   -2.8807   18.6650 H   0  0  0  0  0  0  0  0  0  0  0  0
   17.2497   -4.2994   18.0816 H   0  0  0  0  0  0  0  0  0  0  0  0
   19.1543   -2.5309   16.1600 H   0  0  0  0  0  0  0  0  0  0  0  0
   18.5487   -4.1840   15.9623 H   0  0  0  0  0  0  0  0  0  0  0  0
   18.2215   -2.9718   14.7278 H   0  0  0  0  0  0  0  0  0  0  0  0
   16.7014   -1.5581   14.4436 H   0  0  0  0  0  0  0  0  0  0  0  0
   17.1228    1.2538   15.0124 H   0  0  0  0  0  0  0  0  0  0  0  0
   16.3722   -0.1120   12.3808 H   0  0  0  0  0  0  0  0  0  0  0  0
   17.9669    0.4019   12.9095 H   0  0  0  0  0  0  0  0  0  0  0  0
   16.7208    1.6146   12.5820 H   0  0  0  0  0  0  0  0  0  0  0  0
   14.9764    1.3668   15.7637 H   0  0  0  0  0  0  0  0  0  0  0  0
   14.8464    1.9595   14.1217 H   0  0  0  0  0  0  0  0  0  0  0  0
   12.4009    0.9283   15.8768 H   0  0  0  0  0  0  0  0  0  0  0  0
   10.7888   -1.0745   15.2177 H   0  0  0  0  0  0  0  0  0  0  0  0
   11.9383   -2.6738   13.4959 H   0  0  0  0  0  0  0  0  0  0  0  0
  1  2  1  0
  2  3  1  0
  3  4  1  0
  4  5  1  0
  4  6  1  0
  4  7  1  0
  7  8  2  0
  7  9  1  0
  9 10  1  0
 10 11  1  0
 10 12  1  0
 12 13  1  0
 13 14  2  0
 14 15  1  0
 15 16  2  0
 16 17  1  0
 17 13  1  0
  1 18  1  0
  1 19  1  0
  1 20  1  0
  3 21  1  0
  3 22  1  0
  5 23  1  0
  5 24  1  0
  5 25  1  0
  6 26  1  0
  6 27  1  0
  6 28  1  0
  9 29  1  0
 10 30  1  0
 11 31  1  0
 11 32  1  0
 11 33  1  0
 12 34  1  0
 12 35  1  0
 14 36  1  0
 15 37  1  0
 16 38  1  0
M  END
>  <Energy>  (595) 
40.089137924076553

>  <compound_id>  (595) 
84671

>  <target_id>  (595) 
1

>  <reference_id>  (595) 
120

>  <inspiration_ids>  (595) 
[120, 97]

>  <energy_score>  (595) 
-25.043266599390506

>  <distance_score>  (595) 
2.362754538068793

>  <path>  (595) 
/opt/xchem-fragalysis-2/maxwin/BulkDock/SCRATCH/511020/C84671-P120/C84671-P120.minimised.mol

>  <scratch_subdir>  (595) 
/opt/xchem-fragalysis-2/maxwin/BulkDock/SCRATCH/511020/C84671-P120

>  <fragmenstein_runtime>  (595) 
2.512908935546875

>  <fragmenstein_outcome>  (595) 
too moved

>  <fragmenstein_mode>  (595) 
expansion

>  <fragmenstein_error>  (595) 


$$$$
C84671-P97
     RDKit          3D

 38 38  0  0  0  0  0  0  0  0999 V2000
   13.3437   -3.1429   16.5472 C   0  0  0  0  0  0  0  0  0  0  0  0
   13.8851   -4.4033   17.6899 S   0  0  0  0  0  0  0  0  0  0  0  0
   15.7089   -4.1271   17.6659 C   0  0  0  0  0  0  0  0  0  0  0  0
   16.2524   -2.7252   18.0890 C   0  0  0  0  0  0  0  0  0  0  0  0
   17.7432   -2.8849   18.4664 C   0  0  0  0  0  0  0  0  0  0  0  0
   15.5143   -2.2211   19.3412 C   0  0  0  0  0  0  0  0  0  0  0  0
   16.2610   -1.8006   16.8207 C   0  0  0  0  0  0  0  0  0  0  0  0
   16.5265   -2.2535   15.7769 O   0  0  0  0  0  0  0  0  0  0  0  0
   15.9873   -0.3319   17.2386 N   0  0  0  0  0  0  0  0  0  0  0  0
   15.8902    0.8756   16.4352 C   0  0  0  0  0  0  0  0  0  0  0  0
   17.2360    1.5998   16.4685 C   0  0  0  0  0  0  0  0  0  0  0  0
   15.4602    0.6444   14.9701 C   0  0  0  0  0  0  0  0  0  0  0  0
   14.1124   -0.0010   14.7881 C   0  0  0  0  0  0  0  0  0  0  0  0
   12.9404    0.1653   15.4987 C   0  0  0  0  0  0  0  0  0  0  0  0
   11.8857   -0.6655   15.0186 C   0  0  0  0  0  0  0  0  0  0  0  0
   12.2943   -1.4575   13.9729 C   0  0  0  0  0  0  0  0  0  0  0  0
   13.8810   -1.0776   13.4725 S   0  0  0  0  0  0  0  0  0  0  0  0
   13.9625   -3.1643   15.6543 H   0  0  0  0  0  0  0  0  0  0  0  0
   12.3065   -3.3451   16.2695 H   0  0  0  0  0  0  0  0  0  0  0  0
   13.3948   -2.1661   17.0261 H   0  0  0  0  0  0  0  0  0  0  0  0
   16.0726   -4.4316   16.6782 H   0  0  0  0  0  0  0  0  0  0  0  0
   16.0996   -4.8775   18.3645 H   0  0  0  0  0  0  0  0  0  0  0  0
   18.1963   -1.9157   18.7060 H   0  0  0  0  0  0  0  0  0  0  0  0
   18.3201   -3.3163   17.6398 H   0  0  0  0  0  0  0  0  0  0  0  0
   17.8668   -3.5390   19.3369 H   0  0  0  0  0  0  0  0  0  0  0  0
   15.3762   -3.0270   20.0716 H   0  0  0  0  0  0  0  0  0  0  0  0
   14.5334   -1.8071   19.0999 H   0  0  0  0  0  0  0  0  0  0  0  0
   16.0785   -1.4368   19.8597 H   0  0  0  0  0  0  0  0  0  0  0  0
   15.8686   -0.2827   18.2383 H   0  0  0  0  0  0  0  0  0  0  0  0
   15.1501    1.5087   16.9387 H   0  0  0  0  0  0  0  0  0  0  0  0
   18.0261    0.9903   16.0156 H   0  0  0  0  0  0  0  0  0  0  0  0
   17.5365    1.8130   17.5004 H   0  0  0  0  0  0  0  0  0  0  0  0
   17.1841    2.5513   15.9292 H   0  0  0  0  0  0  0  0  0  0  0  0
   15.4294    1.6141   14.4548 H   0  0  0  0  0  0  0  0  0  0  0  0
   16.2320    0.0527   14.4606 H   0  0  0  0  0  0  0  0  0  0  0  0
   12.8422    0.8463   16.3335 H   0  0  0  0  0  0  0  0  0  0  0  0
   10.8849   -0.7074   15.4279 H   0  0  0  0  0  0  0  0  0  0  0  0
   11.7241   -2.2082   13.4456 H   0  0  0  0  0  0  0  0  0  0  0  0
  1  2  1  0
  2  3  1  0
  3  4  1  0
  4  5  1  0
  4  6  1  0
  4  7  1  0
  7  8  2  0
  7  9  1  0
  9 10  1  0
 10 11  1  0
 10 12  1  0
 12 13  1  0
 13 14  2  0
 14 15  1  0
 15 16  2  0
 16 17  1  0
 17 13  1  0
  1 18  1  0
  1 19  1  0
  1 20  1  0
  3 21  1  0
  3 22  1  0
  5 23  1  0
  5 24  1  0
  5 25  1  0
  6 26  1  0
  6 27  1  0
  6 28  1  0
  9 29  1  0
 10 30  1  0
 11 31  1  0
 11 32  1  0
 11 33  1  0
 12 34  1  0
 12 35  1  0
 14 36  1  0
 15 37  1  0
 16 38  1  0
M  END
>  <Energy>  (596) 
38.867773593142473

>  <compound_id>  (596) 
84671

>  <target_id>  (596) 
1

>  <reference_id>  (596) 
97

>  <inspiration_ids>  (596) 
[120, 97]

>  <energy_score>  (596) 
-26.264630930324763

>  <distance_score>  (596) 
2.4884175013707788

>  <path>  (596) 
/opt/xchem-fragalysis-2/maxwin/BulkDock/SCRATCH/511020/C84671-P97/C84671-P97.minimised.mol

>  <scratch_subdir>  (596) 
/opt/xchem-fragalysis-2/maxwin/BulkDock/SCRATCH/511020/C84671-P97

>  <fragmenstein_runtime>  (596) 
2.878136396408081

>  <fragmenstein_outcome>  (596) 
too moved

>  <fragmenstein_mode>  (596) 
expansion

>  <fragmenstein_error>  (596) 


$$$$
C84675-P120
     RDKit          3D

 35 35  0  0  0  0  0  0  0  0999 V2000
   19.3367    1.9813   15.0456 C   0  0  0  0  0  0  0  0  0  0  0  0
   18.8879    0.4899   14.1278 S   0  0  0  0  0  0  0  0  0  0  0  0
   17.4069    1.1004   13.2527 C   0  0  0  0  0  0  0  0  0  0  0  0
   16.0291    0.7787   13.8673 C   0  0  0  0  0  0  0  0  0  0  0  0
   15.7953   -0.7215   14.1132 C   0  0  0  0  0  0  0  0  0  0  0  0
   14.4125   -1.1040   14.5922 C   0  0  0  0  0  0  0  0  0  0  0  0
   14.0994   -1.9121   15.6696 C   0  0  0  0  0  0  0  0  0  0  0  0
   12.7064   -2.1968   15.7591 C   0  0  0  0  0  0  0  0  0  0  0  0
   11.9918   -1.5715   14.7667 C   0  0  0  0  0  0  0  0  0  0  0  0
   12.9997   -0.6205   13.7606 S   0  0  0  0  0  0  0  0  0  0  0  0
   15.7193    1.5516   15.0521 N   0  0  0  0  0  0  0  0  0  0  0  0
   16.0846    1.3049   16.5399 C   0  0  0  0  0  0  0  0  0  0  0  0
   16.7558    0.4832   17.0279 O   0  0  0  0  0  0  0  0  0  0  0  0
   15.3351    2.3021   17.3994 C   0  0  0  0  0  0  0  0  0  0  0  0
   15.8232    3.7298   17.1903 C   0  0  0  0  0  0  0  0  0  0  0  0
   13.8593    2.1371   17.1405 C   0  0  0  0  0  0  0  0  0  0  0  0
   13.4577    0.8522   17.2138 F   0  0  0  0  0  0  0  0  0  0  0  0
   13.1445    2.8527   18.0364 F   0  0  0  0  0  0  0  0  0  0  0  0
   13.5313    2.6043   15.9081 F   0  0  0  0  0  0  0  0  0  0  0  0
   20.1969    1.7625   15.6840 H   0  0  0  0  0  0  0  0  0  0  0  0
   18.5168    2.3229   15.6783 H   0  0  0  0  0  0  0  0  0  0  0  0
   19.6173    2.7789   14.3526 H   0  0  0  0  0  0  0  0  0  0  0  0
   17.4457    0.6423   12.2573 H   0  0  0  0  0  0  0  0  0  0  0  0
   17.5051    2.1808   13.0966 H   0  0  0  0  0  0  0  0  0  0  0  0
   15.2958    1.1236   13.1268 H   0  0  0  0  0  0  0  0  0  0  0  0
   15.9886   -1.2713   13.1821 H   0  0  0  0  0  0  0  0  0  0  0  0
   16.5195   -1.1021   14.8439 H   0  0  0  0  0  0  0  0  0  0  0  0
   14.8478   -2.3189   16.3402 H   0  0  0  0  0  0  0  0  0  0  0  0
   12.2589   -2.8410   16.5055 H   0  0  0  0  0  0  0  0  0  0  0  0
   10.9267   -1.6133   14.5818 H   0  0  0  0  0  0  0  0  0  0  0  0
   15.0433    2.3081   14.9891 H   0  0  0  0  0  0  0  0  0  0  0  0
   15.5284    2.0298   18.4453 H   0  0  0  0  0  0  0  0  0  0  0  0
   16.9045    3.7948   17.3534 H   0  0  0  0  0  0  0  0  0  0  0  0
   15.3331    4.4117   17.8930 H   0  0  0  0  0  0  0  0  0  0  0  0
   15.6237    4.0940   16.1775 H   0  0  0  0  0  0  0  0  0  0  0  0
  1  2  1  0
  2  3  1  0
  3  4  1  0
  4  5  1  0
  5  6  1  0
  6  7  2  0
  7  8  1  0
  8  9  2  0
  9 10  1  0
  4 11  1  0
 11 12  1  0
 12 13  2  0
 12 14  1  0
 14 15  1  0
 14 16  1  0
 16 17  1  0
 16 18  1  0
 16 19  1  0
 10  6  1  0
  1 20  1  0
  1 21  1  0
  1 22  1  0
  3 23  1  0
  3 24  1  0
  4 25  1  0
  5 26  1  0
  5 27  1  0
  7 28  1  0
  8 29  1  0
  9 30  1  0
 11 31  1  0
 14 32  1  0
 15 33  1  0
 15 34  1  0
 15 35  1  0
M  END
>  <Energy>  (597) 
16.929787895555943

>  <compound_id>  (597) 
84675

>  <target_id>  (597) 
1

>  <reference_id>  (597) 
120

>  <inspiration_ids>  (597) 
[120, 97]

>  <energy_score>  (597) 
-29.70865695176632

>  <distance_score>  (597) 
3.01058354176661

>  <path>  (597) 
/opt/xchem-fragalysis-2/maxwin/BulkDock/SCRATCH/511020/C84675-P120/C84675-P120.minimised.mol

>  <scratch_subdir>  (597) 
/opt/xchem-fragalysis-2/maxwin/BulkDock/SCRATCH/511020/C84675-P120

>  <fragmenstein_runtime>  (597) 
3.930819511413574

>  <fragmenstein_outcome>  (597) 
too moved

>  <fragmenstein_mode>  (597) 
expansion

>  <fragmenstein_error>  (597) 


$$$$
C84675-P97
     RDKit          3D

 35 35  0  0  0  0  0  0  0  0999 V2000
   18.8910   -0.6218   12.1901 C   0  0  0  0  0  0  0  0  0  0  0  0
   17.7800    0.6914   11.6198 S   0  0  0  0  0  0  0  0  0  0  0  0
   17.2851    1.3837   13.2377 C   0  0  0  0  0  0  0  0  0  0  0  0
   15.8579    0.9899   13.6629 C   0  0  0  0  0  0  0  0  0  0  0  0
   15.7424   -0.4995   14.0349 C   0  0  0  0  0  0  0  0  0  0  0  0
   14.3746   -0.9457   14.4939 C   0  0  0  0  0  0  0  0  0  0  0  0
   13.1264   -0.6631   13.9806 C   0  0  0  0  0  0  0  0  0  0  0  0
   12.0837   -1.3787   14.6403 C   0  0  0  0  0  0  0  0  0  0  0  0
   12.5649   -2.2019   15.6283 C   0  0  0  0  0  0  0  0  0  0  0  0
   14.2524   -2.0346   15.8075 S   0  0  0  0  0  0  0  0  0  0  0  0
   15.4340    1.7972   14.7910 N   0  0  0  0  0  0  0  0  0  0  0  0
   15.9994    1.8901   16.2304 C   0  0  0  0  0  0  0  0  0  0  0  0
   16.9398    1.3895   16.7071 O   0  0  0  0  0  0  0  0  0  0  0  0
   15.0737    2.7533   17.0699 C   0  0  0  0  0  0  0  0  0  0  0  0
   15.1922    4.2283   16.7089 C   0  0  0  0  0  0  0  0  0  0  0  0
   13.6646    2.2321   16.9481 C   0  0  0  0  0  0  0  0  0  0  0  0
   13.5801    0.8991   17.1300 F   0  0  0  0  0  0  0  0  0  0  0  0
   12.8504    2.8201   17.8551 F   0  0  0  0  0  0  0  0  0  0  0  0
   13.1558    2.5126   15.7216 F   0  0  0  0  0  0  0  0  0  0  0  0
   18.3626   -1.3301   12.8319 H   0  0  0  0  0  0  0  0  0  0  0  0
   19.7365   -0.1923   12.7337 H   0  0  0  0  0  0  0  0  0  0  0  0
   19.2774   -1.1635   11.3226 H   0  0  0  0  0  0  0  0  0  0  0  0
   17.3356    2.4739   13.1312 H   0  0  0  0  0  0  0  0  0  0  0  0
   18.0185    1.1170   14.0069 H   0  0  0  0  0  0  0  0  0  0  0  0
   15.1576    1.2290   12.8530 H   0  0  0  0  0  0  0  0  0  0  0  0
   15.9925   -1.1164   13.1632 H   0  0  0  0  0  0  0  0  0  0  0  0
   16.4890   -0.7356   14.8050 H   0  0  0  0  0  0  0  0  0  0  0  0
   12.9579    0.0036   13.1445 H   0  0  0  0  0  0  0  0  0  0  0  0
   11.0360   -1.3139   14.3798 H   0  0  0  0  0  0  0  0  0  0  0  0
   12.0134   -2.8811   16.2620 H   0  0  0  0  0  0  0  0  0  0  0  0
   14.6431    2.4290   14.6951 H   0  0  0  0  0  0  0  0  0  0  0  0
   15.3873    2.6315   18.1149 H   0  0  0  0  0  0  0  0  0  0  0  0
   14.8676    4.4306   15.6831 H   0  0  0  0  0  0  0  0  0  0  0  0
   16.2319    4.5630   16.7933 H   0  0  0  0  0  0  0  0  0  0  0  0
   14.5831    4.8414   17.3813 H   0  0  0  0  0  0  0  0  0  0  0  0
  1  2  1  0
  2  3  1  0
  3  4  1  0
  4  5  1  0
  5  6  1  0
  6  7  2  0
  7  8  1  0
  8  9  2  0
  9 10  1  0
  4 11  1  0
 11 12  1  0
 12 13  2  0
 12 14  1  0
 14 15  1  0
 14 16  1  0
 16 17  1  0
 16 18  1  0
 16 19  1  0
 10  6  1  0
  1 20  1  0
  1 21  1  0
  1 22  1  0
  3 23  1  0
  3 24  1  0
  4 25  1  0
  5 26  1  0
  5 27  1  0
  7 28  1  0
  8 29  1  0
  9 30  1  0
 11 31  1  0
 14 32  1  0
 15 33  1  0
 15 34  1  0
 15 35  1  0
M  END
>  <Energy>  (598) 
16.338356724439166

>  <compound_id>  (598) 
84675

>  <target_id>  (598) 
1

>  <reference_id>  (598) 
97

>  <inspiration_ids>  (598) 
[120, 97]

>  <energy_score>  (598) 
-30.300088122883636

>  <distance_score>  (598) 
3.277986837627687

>  <path>  (598) 
/opt/xchem-fragalysis-2/maxwin/BulkDock/SCRATCH/511020/C84675-P97/C84675-P97.minimised.mol

>  <scratch_subdir>  (598) 
/opt/xchem-fragalysis-2/maxwin/BulkDock/SCRATCH/511020/C84675-P97

>  <fragmenstein_runtime>  (598) 
3.1903436183929443

>  <fragmenstein_outcome>  (598) 
too moved

>  <fragmenstein_mode>  (598) 
expansion

>  <fragmenstein_error>  (598) 


$$$$
C84677-P120
     RDKit          3D

 35 35  0  0  0  0  0  0  0  0999 V2000
   12.1384    1.0724   12.8648 O   0  0  0  0  0  0  0  0  0  0  0  0
   13.0727    1.6179   13.2995 C   0  0  0  0  0  0  0  0  0  0  0  0
   14.2773    1.9438   12.4115 C   0  0  0  0  0  0  0  0  0  0  0  0
   15.8851    2.1593   13.2600 S   0  0  0  0  0  0  0  0  0  0  0  0
   15.9532    0.6766   14.3425 C   0  0  0  0  0  0  0  0  0  0  0  0
   17.2087   -0.1511   14.1222 C   0  0  0  0  0  0  0  0  0  0  0  0
   17.2197   -0.9287   12.8106 C   0  0  0  0  0  0  0  0  0  0  0  0
   16.2992   -2.1270   12.8204 C   0  0  0  0  0  0  0  0  0  0  0  0
   15.0107   -1.7675   12.9680 F   0  0  0  0  0  0  0  0  0  0  0  0
   16.4114   -2.7859   11.6482 F   0  0  0  0  0  0  0  0  0  0  0  0
   16.6330   -2.9610   13.8284 F   0  0  0  0  0  0  0  0  0  0  0  0
   13.4046    2.0332   14.7502 N   0  0  0  0  0  0  0  0  0  0  0  0
   12.7009    1.7796   15.9787 C   0  0  0  0  0  0  0  0  0  0  0  0
   13.2839    0.5337   16.6667 C   0  0  0  0  0  0  0  0  0  0  0  0
   12.8013   -0.8168   16.1984 C   0  0  0  0  0  0  0  0  0  0  0  0
   13.3523   -2.0513   16.6960 C   0  0  0  0  0  0  0  0  0  0  0  0
   12.7115   -3.1642   16.2031 C   0  0  0  0  0  0  0  0  0  0  0  0
   11.4924   -2.7508   15.0884 S   0  0  0  0  0  0  0  0  0  0  0  0
   11.7889   -1.0823   15.2946 C   0  0  0  0  0  0  0  0  0  0  0  0
   14.3964    1.1300   11.6886 H   0  0  0  0  0  0  0  0  0  0  0  0
   14.0515    2.8624   11.8616 H   0  0  0  0  0  0  0  0  0  0  0  0
   15.0589    0.0621   14.2481 H   0  0  0  0  0  0  0  0  0  0  0  0
   16.0012    1.0648   15.3633 H   0  0  0  0  0  0  0  0  0  0  0  0
   18.0909    0.5009   14.1583 H   0  0  0  0  0  0  0  0  0  0  0  0
   17.3206   -0.8528   14.9582 H   0  0  0  0  0  0  0  0  0  0  0  0
   18.2405   -1.2904   12.6367 H   0  0  0  0  0  0  0  0  0  0  0  0
   16.9746   -0.2813   11.9624 H   0  0  0  0  0  0  0  0  0  0  0  0
   14.2707    2.5670   14.7610 H   0  0  0  0  0  0  0  0  0  0  0  0
   11.6320    1.6823   15.7702 H   0  0  0  0  0  0  0  0  0  0  0  0
   12.8566    2.6577   16.6135 H   0  0  0  0  0  0  0  0  0  0  0  0
   14.3758    0.5496   16.6123 H   0  0  0  0  0  0  0  0  0  0  0  0
   13.0719    0.6054   17.7356 H   0  0  0  0  0  0  0  0  0  0  0  0
   14.1612   -2.1142   17.4142 H   0  0  0  0  0  0  0  0  0  0  0  0
   12.9042   -4.2023   16.4340 H   0  0  0  0  0  0  0  0  0  0  0  0
   11.1824   -0.3895   14.7246 H   0  0  0  0  0  0  0  0  0  0  0  0
  1  2  2  0
  2  3  1  0
  3  4  1  0
  4  5  1  0
  5  6  1  0
  6  7  1  0
  7  8  1  0
  8  9  1  0
  8 10  1  0
  8 11  1  0
  2 12  1  0
 12 13  1  0
 13 14  1  0
 14 15  1  0
 15 16  1  0
 16 17  2  0
 17 18  1  0
 18 19  1  0
 19 15  2  0
  3 20  1  0
  3 21  1  0
  5 22  1  0
  5 23  1  0
  6 24  1  0
  6 25  1  0
  7 26  1  0
  7 27  1  0
 12 28  1  0
 13 29  1  0
 13 30  1  0
 14 31  1  0
 14 32  1  0
 16 33  1  0
 17 34  1  0
 19 35  1  0
M  END
>  <Energy>  (599) 
49.528396661954737

>  <compound_id>  (599) 
84677

>  <target_id>  (599) 
1

>  <reference_id>  (599) 
120

>  <inspiration_ids>  (599) 
[120, 97]

>  <energy_score>  (599) 
-23.798526148732833

>  <distance_score>  (599) 
1.4915594604611693

>  <path>  (599) 
/opt/xchem-fragalysis-2/maxwin/BulkDock/SCRATCH/511020/C84677-P120/C84677-P120.minimised.mol

>  <scratch_subdir>  (599) 
/opt/xchem-fragalysis-2/maxwin/BulkDock/SCRATCH/511020/C84677-P120

>  <fragmenstein_runtime>  (599) 
2.3179783821105957

>  <fragmenstein_outcome>  (599) 
too moved

>  <fragmenstein_mode>  (599) 
expansion

>  <fragmenstein_error>  (599) 


$$$$
C84677-P97
     RDKit          3D

 35 35  0  0  0  0  0  0  0  0999 V2000
   12.4347    1.7903   13.2565 O   0  0  0  0  0  0  0  0  0  0  0  0
   13.2824    2.3307   13.8490 C   0  0  0  0  0  0  0  0  0  0  0  0
   14.4085    3.1070   13.1728 C   0  0  0  0  0  0  0  0  0  0  0  0
   15.7794    2.0033   12.6685 S   0  0  0  0  0  0  0  0  0  0  0  0
   15.9189    0.8873   14.1095 C   0  0  0  0  0  0  0  0  0  0  0  0
   17.1305   -0.0390   14.0418 C   0  0  0  0  0  0  0  0  0  0  0  0
   17.1742   -0.9700   12.8328 C   0  0  0  0  0  0  0  0  0  0  0  0
   16.1875   -2.1104   12.8992 C   0  0  0  0  0  0  0  0  0  0  0  0
   14.9212   -1.6808   13.0445 F   0  0  0  0  0  0  0  0  0  0  0  0
   16.2521   -2.8230   11.7555 F   0  0  0  0  0  0  0  0  0  0  0  0
   16.4841   -2.9219   13.9381 F   0  0  0  0  0  0  0  0  0  0  0  0
   13.5905    2.3510   15.3718 N   0  0  0  0  0  0  0  0  0  0  0  0
   12.9763    1.6358   16.4581 C   0  0  0  0  0  0  0  0  0  0  0  0
   13.7032    0.3110   16.7418 C   0  0  0  0  0  0  0  0  0  0  0  0
   13.0835   -0.9495   16.2038 C   0  0  0  0  0  0  0  0  0  0  0  0
   13.4411   -2.2503   16.7050 C   0  0  0  0  0  0  0  0  0  0  0  0
   12.6801   -3.2607   16.1683 C   0  0  0  0  0  0  0  0  0  0  0  0
   11.6008   -2.6780   14.9878 S   0  0  0  0  0  0  0  0  0  0  0  0
   12.1277   -1.0679   15.2121 C   0  0  0  0  0  0  0  0  0  0  0  0
   14.0027    3.5945   12.2803 H   0  0  0  0  0  0  0  0  0  0  0  0
   14.7962    3.9015   13.8170 H   0  0  0  0  0  0  0  0  0  0  0  0
   15.0072    0.2960   14.1843 H   0  0  0  0  0  0  0  0  0  0  0  0
   16.0426    1.5080   15.0001 H   0  0  0  0  0  0  0  0  0  0  0  0
   18.0410    0.5747   14.0370 H   0  0  0  0  0  0  0  0  0  0  0  0
   17.1725   -0.6344   14.9624 H   0  0  0  0  0  0  0  0  0  0  0  0
   18.1805   -1.4037   12.7752 H   0  0  0  0  0  0  0  0  0  0  0  0
   17.0350   -0.4189   11.8978 H   0  0  0  0  0  0  0  0  0  0  0  0
   14.4533    2.8561   15.5363 H   0  0  0  0  0  0  0  0  0  0  0  0
   11.9169    1.4999   16.2255 H   0  0  0  0  0  0  0  0  0  0  0  0
   13.0592    2.2921   17.3307 H   0  0  0  0  0  0  0  0  0  0  0  0
   14.7508    0.3559   16.4342 H   0  0  0  0  0  0  0  0  0  0  0  0
   13.7533    0.1930   17.8300 H   0  0  0  0  0  0  0  0  0  0  0  0
   14.1890   -2.4296   17.4686 H   0  0  0  0  0  0  0  0  0  0  0  0
   12.7137   -4.3138   16.4103 H   0  0  0  0  0  0  0  0  0  0  0  0
   11.6757   -0.2941   14.6039 H   0  0  0  0  0  0  0  0  0  0  0  0
  1  2  2  0
  2  3  1  0
  3  4  1  0
  4  5  1  0
  5  6  1  0
  6  7  1  0
  7  8  1  0
  8  9  1  0
  8 10  1  0
  8 11  1  0
  2 12  1  0
 12 13  1  0
 13 14  1  0
 14 15  1  0
 15 16  1  0
 16 17  2  0
 17 18  1  0
 18 19  1  0
 19 15  2  0
  3 20  1  0
  3 21  1  0
  5 22  1  0
  5 23  1  0
  6 24  1  0
  6 25  1  0
  7 26  1  0
  7 27  1  0
 12 28  1  0
 13 29  1  0
 13 30  1  0
 14 31  1  0
 14 32  1  0
 16 33  1  0
 17 34  1  0
 19 35  1  0
M  END
>  <Energy>  (600) 
51.429403636320281

>  <compound_id>  (600) 
84677

>  <target_id>  (600) 
1

>  <reference_id>  (600) 
97

>  <inspiration_ids>  (600) 
[120, 97]

>  <energy_score>  (600) 
-21.897519174368142

>  <distance_score>  (600) 
1.4783955135079692

>  <path>  (600) 
/opt/xchem-fragalysis-2/maxwin/BulkDock/SCRATCH/511020/C84677-P97/C84677-P97.minimised.mol

>  <scratch_subdir>  (600) 
/opt/xchem-fragalysis-2/maxwin/BulkDock/SCRATCH/511020/C84677-P97

>  <fragmenstein_runtime>  (600) 
2.29677152633667

>  <fragmenstein_outcome>  (600) 
too moved

>  <fragmenstein_mode>  (600) 
expansion

>  <fragmenstein_error>  (600) 


$$$$
C51646-P94
     RDKit          3D

 64 67  0  0  0  0  0  0  0  0999 V2000
    6.0345  -12.9394   20.9248 O   0  0  0  0  0  0  0  0  0  0  0  0
    4.9707  -13.1028   20.4704 C   0  0  0  0  0  0  0  0  0  0  0  0
    3.5004  -13.8501   21.3611 N   0  0  0  0  0  0  0  0  0  0  0  0
    3.3603  -14.6924   23.1380 C   0  0  0  0  0  0  0  0  0  0  0  0
    3.3876  -16.7377   23.5108 C   0  0  0  0  0  0  0  0  0  0  0  0
    2.1593  -18.1465   24.6409 C   0  0  0  0  0  0  0  0  0  0  0  0
    0.1381  -18.5986   25.1171 N   0  0  0  0  0  0  0  0  0  0  0  0
   -1.7744  -19.0296   25.0005 C   0  0  0  0  0  0  0  0  0  0  0  0
   -1.2478  -19.3646   23.3523 N   0  0  0  0  0  0  0  0  0  0  0  0
   -1.0379  -20.6165   22.7320 C   0  0  0  0  0  0  0  0  0  0  0  0
   -0.3104  -21.0707   21.6396 C   0  0  0  0  0  0  0  0  0  0  0  0
   -0.3409  -22.4514   21.3643 C   0  0  0  0  0  0  0  0  0  0  0  0
   -1.0673  -23.3432   22.1587 C   0  0  0  0  0  0  0  0  0  0  0  0
   -1.8202  -22.8742   23.2263 C   0  0  0  0  0  0  0  0  0  0  0  0
   -1.7862  -21.4842   23.4184 C   0  0  0  0  0  0  0  0  0  0  0  0
   -2.5813  -20.5088   24.0698 N   0  0  0  0  0  0  0  0  0  0  0  0
   -4.1908  -20.9254   23.9727 C   0  0  0  0  0  0  0  0  0  0  0  0
   -4.4678  -21.7937   22.6446 C   0  0  0  0  0  0  0  0  0  0  0  0
   -5.9445  -21.8206   22.3095 C   0  0  0  0  0  0  0  0  0  0  0  0
   -6.5689  -22.8241   23.2463 C   0  0  0  0  0  0  0  0  0  0  0  0
   -5.8873  -22.8211   24.6140 C   0  0  0  0  0  0  0  0  0  0  0  0
   -5.1172  -21.5586   25.0434 C   0  0  0  0  0  0  0  0  0  0  0  0
    4.5745  -12.8672   19.0258 N   0  0  0  0  0  0  0  0  0  0  0  0
    5.3968  -12.4852   17.8074 C   0  0  0  0  0  0  0  0  0  0  0  0
    6.1817  -11.1286   17.6891 C   0  0  0  0  0  0  0  0  0  0  0  0
    7.4731  -11.0715   18.4967 C   0  0  0  0  0  0  0  0  0  0  0  0
    8.4446  -12.0991   17.9580 C   0  0  0  0  0  0  0  0  0  0  0  0
    7.8157  -13.4818   18.0589 C   0  0  0  0  0  0  0  0  0  0  0  0
    6.4129  -13.5948   17.4332 C   0  0  0  0  0  0  0  0  0  0  0  0
    2.7438  -13.9544   20.7350 H   0  0  0  0  0  0  0  0  0  0  0  0
    3.9308  -14.3519   24.0025 H   0  0  0  0  0  0  0  0  0  0  0  0
    2.4543  -14.2009   23.4111 H   0  0  0  0  0  0  0  0  0  0  0  0
    2.5705  -15.9822   23.5695 H   0  0  0  0  0  0  0  0  0  0  0  0
    4.2825  -16.4948   24.1448 H   0  0  0  0  0  0  0  0  0  0  0  0
    2.6408  -19.1155   24.3820 H   0  0  0  0  0  0  0  0  0  0  0  0
    2.6512  -17.9743   25.6413 H   0  0  0  0  0  0  0  0  0  0  0  0
    0.1529  -18.7796   26.1140 H   0  0  0  0  0  0  0  0  0  0  0  0
    0.2957  -20.3800   21.0666 H   0  0  0  0  0  0  0  0  0  0  0  0
    0.2398  -22.8274   20.5250 H   0  0  0  0  0  0  0  0  0  0  0  0
   -1.0597  -24.4035   21.9213 H   0  0  0  0  0  0  0  0  0  0  0  0
   -2.4333  -23.5440   23.8126 H   0  0  0  0  0  0  0  0  0  0  0  0
   -4.6434  -19.9398   23.9225 H   0  0  0  0  0  0  0  0  0  0  0  0
   -3.9035  -21.4925   21.7540 H   0  0  0  0  0  0  0  0  0  0  0  0
   -4.1596  -22.8330   22.7851 H   0  0  0  0  0  0  0  0  0  0  0  0
   -6.3947  -20.8287   22.4258 H   0  0  0  0  0  0  0  0  0  0  0  0
   -6.1049  -22.1331   21.2719 H   0  0  0  0  0  0  0  0  0  0  0  0
   -6.4472  -23.8260   22.8181 H   0  0  0  0  0  0  0  0  0  0  0  0
   -7.6460  -22.6648   23.3006 H   0  0  0  0  0  0  0  0  0  0  0  0
   -6.6126  -23.0630   25.3885 H   0  0  0  0  0  0  0  0  0  0  0  0
   -5.1682  -23.6500   24.6245 H   0  0  0  0  0  0  0  0  0  0  0  0
   -5.7159  -20.7176   25.3880 H   0  0  0  0  0  0  0  0  0  0  0  0
   -4.7606  -21.8662   25.9971 H   0  0  0  0  0  0  0  0  0  0  0  0
    3.6683  -13.1596   18.9057 H   0  0  0  0  0  0  0  0  0  0  0  0
    4.6359  -12.4689   17.0152 H   0  0  0  0  0  0  0  0  0  0  0  0
    5.5987  -10.2300   17.8732 H   0  0  0  0  0  0  0  0  0  0  0  0
    6.4541  -11.0209   16.6275 H   0  0  0  0  0  0  0  0  0  0  0  0
    7.9312  -10.0845   18.4451 H   0  0  0  0  0  0  0  0  0  0  0  0
    7.2732  -11.2560   19.5554 H   0  0  0  0  0  0  0  0  0  0  0  0
    9.3786  -12.0726   18.5302 H   0  0  0  0  0  0  0  0  0  0  0  0
    8.6983  -11.8769   16.9147 H   0  0  0  0  0  0  0  0  0  0  0  0
    7.7606  -13.7653   19.1136 H   0  0  0  0  0  0  0  0  0  0  0  0
    8.4775  -14.2155   17.5834 H   0  0  0  0  0  0  0  0  0  0  0  0
    6.5460  -13.5675   16.3427 H   0  0  0  0  0  0  0  0  0  0  0  0
    5.9944  -14.5823   17.6630 H   0  0  0  0  0  0  0  0  0  0  0  0
  1  2  2  0
  2  3  1  0
  3  4  1  0
  4  5  1  0
  5  6  1  0
  6  7  1  0
  7  8  1  0
  8  9  2  0
  9 10  1  0
 10 11  2  0
 11 12  1  0
 12 13  2  0
 13 14  1  0
 14 15  2  0
 15 16  1  0
 16 17  1  0
 17 18  1  0
 18 19  1  0
 19 20  1  0
 20 21  1  0
 21 22  1  0
  2 23  1  0
 23 24  1  0
 24 25  1  0
 25 26  1  0
 26 27  1  0
 27 28  1  0
 28 29  1  0
 16  8  1  0
 22 17  1  0
 29 24  1  0
 15 10  1  0
  3 30  1  0
  4 31  1  0
  4 32  1  0
  5 33  1  0
  5 34  1  0
  6 35  1  0
  6 36  1  0
  7 37  1  0
 11 38  1  0
 12 39  1  0
 13 40  1  0
 14 41  1  0
 17 42  1  0
 18 43  1  0
 18 44  1  0
 19 45  1  0
 19 46  1  0
 20 47  1  0
 20 48  1  0
 21 49  1  0
 21 50  1  0
 22 51  1  0
 22 52  1  0
 23 53  1  0
 24 54  1  0
 25 55  1  0
 25 56  1  0
 26 57  1  0
 26 58  1  0
 27 59  1  0
 27 60  1  0
 28 61  1  0
 28 62  1  0
 29 63  1  0
 29 64  1  0
M  END
>  <Energy>  (601) 
1033.8652256262637

>  <compound_id>  (601) 
51646

>  <target_id>  (601) 
1

>  <reference_id>  (601) 
94

>  <inspiration_ids>  (601) 
[94, 124]

>  <energy_score>  (601) 
1076.9322640535374

>  <distance_score>  (601) 
13.05850568370438

>  <path>  (601) 
/opt/xchem-fragalysis-2/maxwin/BulkDock/SCRATCH/511020/C51646-P94/C51646-P94.minimised.mol

>  <scratch_subdir>  (601) 
/opt/xchem-fragalysis-2/maxwin/BulkDock/SCRATCH/511020/C51646-P94

>  <fragmenstein_runtime>  (601) 
86.60096907615662

>  <fragmenstein_outcome>  (601) 
too moved

>  <fragmenstein_mode>  (601) 
expansion

>  <fragmenstein_error>  (601) 


$$$$
C51646-P124
     RDKit          3D

 64 67  0  0  0  0  0  0  0  0999 V2000
   -3.5064  -22.9649   20.7539 O   0  0  0  0  0  0  0  0  0  0  0  0
   -3.0370  -22.3539   21.6418 C   0  0  0  0  0  0  0  0  0  0  0  0
   -3.4961  -22.2510   23.1134 N   0  0  0  0  0  0  0  0  0  0  0  0
   -4.6146  -22.9803   23.8625 C   0  0  0  0  0  0  0  0  0  0  0  0
   -5.6307  -22.1628   24.8286 C   0  0  0  0  0  0  0  0  0  0  0  0
   -6.5415  -23.0690   25.8791 C   0  0  0  0  0  0  0  0  0  0  0  0
   -7.7403  -22.8673   27.1519 N   0  0  0  0  0  0  0  0  0  0  0  0
   -9.1460  -23.7120   27.2278 C   0  0  0  0  0  0  0  0  0  0  0  0
   -9.5898  -24.4236   26.2016 N   0  0  0  0  0  0  0  0  0  0  0  0
  -10.7478  -25.0835   26.4722 C   0  0  0  0  0  0  0  0  0  0  0  0
  -11.5255  -25.8894   25.6467 C   0  0  0  0  0  0  0  0  0  0  0  0
  -12.7418  -25.3273   25.3127 C   0  0  0  0  0  0  0  0  0  0  0  0
  -13.0748  -24.0976   25.8616 C   0  0  0  0  0  0  0  0  0  0  0  0
  -12.3353  -23.5113   26.9186 C   0  0  0  0  0  0  0  0  0  0  0  0
  -11.2816  -24.2408   27.3859 C   0  0  0  0  0  0  0  0  0  0  0  0
  -10.1602  -24.0000   28.1656 N   0  0  0  0  0  0  0  0  0  0  0  0
  -10.0403  -24.7341   29.4435 C   0  0  0  0  0  0  0  0  0  0  0  0
  -10.2757  -26.2250   29.4942 C   0  0  0  0  0  0  0  0  0  0  0  0
  -10.1488  -26.7551   30.9345 C   0  0  0  0  0  0  0  0  0  0  0  0
  -10.0401  -25.7112   32.0527 C   0  0  0  0  0  0  0  0  0  0  0  0
  -10.7139  -24.3718   31.8755 C   0  0  0  0  0  0  0  0  0  0  0  0
  -10.9179  -23.9732   30.4324 C   0  0  0  0  0  0  0  0  0  0  0  0
   -1.7474  -21.4972   21.6738 N   0  0  0  0  0  0  0  0  0  0  0  0
   -0.7598  -21.1369   20.5585 C   0  0  0  0  0  0  0  0  0  0  0  0
    0.6998  -21.1968   21.0435 C   0  0  0  0  0  0  0  0  0  0  0  0
    1.7869  -20.7412   20.0488 C   0  0  0  0  0  0  0  0  0  0  0  0
    1.2920  -20.2548   18.6904 C   0  0  0  0  0  0  0  0  0  0  0  0
    0.0101  -19.4338   18.7192 C   0  0  0  0  0  0  0  0  0  0  0  0
   -0.9205  -19.7306   19.9087 C   0  0  0  0  0  0  0  0  0  0  0  0
   -2.9238  -21.5803   23.5941 H   0  0  0  0  0  0  0  0  0  0  0  0
   -4.1351  -23.7891   24.4199 H   0  0  0  0  0  0  0  0  0  0  0  0
   -5.2136  -23.4726   23.0865 H   0  0  0  0  0  0  0  0  0  0  0  0
   -6.2173  -21.7145   24.0240 H   0  0  0  0  0  0  0  0  0  0  0  0
   -5.1361  -21.3573   25.3680 H   0  0  0  0  0  0  0  0  0  0  0  0
   -6.9783  -23.7614   25.1709 H   0  0  0  0  0  0  0  0  0  0  0  0
   -5.7176  -23.4156   26.4931 H   0  0  0  0  0  0  0  0  0  0  0  0
   -7.2891  -22.7120   28.0427 H   0  0  0  0  0  0  0  0  0  0  0  0
  -11.1239  -26.7018   25.0609 H   0  0  0  0  0  0  0  0  0  0  0  0
  -13.3519  -25.7507   24.5205 H   0  0  0  0  0  0  0  0  0  0  0  0
  -13.9253  -23.5787   25.4319 H   0  0  0  0  0  0  0  0  0  0  0  0
  -12.5302  -22.5448   27.3455 H   0  0  0  0  0  0  0  0  0  0  0  0
   -8.9840  -24.7437   29.7012 H   0  0  0  0  0  0  0  0  0  0  0  0
  -11.2092  -26.5442   29.0216 H   0  0  0  0  0  0  0  0  0  0  0  0
   -9.4891  -26.6609   28.8804 H   0  0  0  0  0  0  0  0  0  0  0  0
  -10.9490  -27.4652   31.1498 H   0  0  0  0  0  0  0  0  0  0  0  0
   -9.2722  -27.4006   31.0113 H   0  0  0  0  0  0  0  0  0  0  0  0
   -8.9728  -25.5140   32.2188 H   0  0  0  0  0  0  0  0  0  0  0  0
  -10.4388  -26.1322   32.9812 H   0  0  0  0  0  0  0  0  0  0  0  0
  -10.1000  -23.6297   32.3975 H   0  0  0  0  0  0  0  0  0  0  0  0
  -11.6468  -24.3317   32.4385 H   0  0  0  0  0  0  0  0  0  0  0  0
  -11.8955  -24.1440   30.0335 H   0  0  0  0  0  0  0  0  0  0  0  0
  -10.9160  -22.8786   30.3596 H   0  0  0  0  0  0  0  0  0  0  0  0
   -1.6724  -21.0390   22.5680 H   0  0  0  0  0  0  0  0  0  0  0  0
   -0.9224  -21.8943   19.7824 H   0  0  0  0  0  0  0  0  0  0  0  0
    0.7770  -20.5768   21.9398 H   0  0  0  0  0  0  0  0  0  0  0  0
    0.9230  -22.2188   21.3748 H   0  0  0  0  0  0  0  0  0  0  0  0
    2.4147  -19.9956   20.5405 H   0  0  0  0  0  0  0  0  0  0  0  0
    2.4671  -21.5858   19.8749 H   0  0  0  0  0  0  0  0  0  0  0  0
    2.0834  -19.7183   18.1561 H   0  0  0  0  0  0  0  0  0  0  0  0
    1.0914  -21.1491   18.0839 H   0  0  0  0  0  0  0  0  0  0  0  0
    0.2194  -18.3599   18.6814 H   0  0  0  0  0  0  0  0  0  0  0  0
   -0.5385  -19.6400   17.7903 H   0  0  0  0  0  0  0  0  0  0  0  0
   -1.9519  -19.6026   19.5610 H   0  0  0  0  0  0  0  0  0  0  0  0
   -0.7277  -18.9658   20.6715 H   0  0  0  0  0  0  0  0  0  0  0  0
  1  2  2  0
  2  3  1  0
  3  4  1  0
  4  5  1  0
  5  6  1  0
  6  7  1  0
  7  8  1  0
  8  9  2  0
  9 10  1  0
 10 11  2  0
 11 12  1  0
 12 13  2  0
 13 14  1  0
 14 15  2  0
 15 16  1  0
 16 17  1  0
 17 18  1  0
 18 19  1  0
 19 20  1  0
 20 21  1  0
 21 22  1  0
  2 23  1  0
 23 24  1  0
 24 25  1  0
 25 26  1  0
 26 27  1  0
 27 28  1  0
 28 29  1  0
 16  8  1  0
 22 17  1  0
 29 24  1  0
 15 10  1  0
  3 30  1  0
  4 31  1  0
  4 32  1  0
  5 33  1  0
  5 34  1  0
  6 35  1  0
  6 36  1  0
  7 37  1  0
 11 38  1  0
 12 39  1  0
 13 40  1  0
 14 41  1  0
 17 42  1  0
 18 43  1  0
 18 44  1  0
 19 45  1  0
 19 46  1  0
 20 47  1  0
 20 48  1  0
 21 49  1  0
 21 50  1  0
 22 51  1  0
 22 52  1  0
 23 53  1  0
 24 54  1  0
 25 55  1  0
 25 56  1  0
 26 57  1  0
 26 58  1  0
 27 59  1  0
 27 60  1  0
 28 61  1  0
 28 62  1  0
 29 63  1  0
 29 64  1  0
M  END
>  <Energy>  (602) 
150.09282207138958

>  <compound_id>  (602) 
51646

>  <target_id>  (602) 
1

>  <reference_id>  (602) 
124

>  <inspiration_ids>  (602) 
[94, 124]

>  <energy_score>  (602) 
193.1598604986558

>  <distance_score>  (602) 
15.102779794274138

>  <path>  (602) 
/opt/xchem-fragalysis-2/maxwin/BulkDock/SCRATCH/511020/C51646-P124/C51646-P124.minimised.mol

>  <scratch_subdir>  (602) 
/opt/xchem-fragalysis-2/maxwin/BulkDock/SCRATCH/511020/C51646-P124

>  <fragmenstein_runtime>  (602) 
121.95915746688843

>  <fragmenstein_outcome>  (602) 
too moved

>  <fragmenstein_mode>  (602) 
expansion

>  <fragmenstein_error>  (602) 


$$$$
C51646-P94
     RDKit          3D

 64 67  0  0  0  0  0  0  0  0999 V2000
    6.0345  -12.9394   20.9248 O   0  0  0  0  0  0  0  0  0  0  0  0
    4.9707  -13.1028   20.4704 C   0  0  0  0  0  0  0  0  0  0  0  0
    3.5004  -13.8501   21.3611 N   0  0  0  0  0  0  0  0  0  0  0  0
    3.3603  -14.6924   23.1380 C   0  0  0  0  0  0  0  0  0  0  0  0
    3.3876  -16.7377   23.5108 C   0  0  0  0  0  0  0  0  0  0  0  0
    2.1593  -18.1465   24.6409 C   0  0  0  0  0  0  0  0  0  0  0  0
    0.1381  -18.5986   25.1171 N   0  0  0  0  0  0  0  0  0  0  0  0
   -1.7744  -19.0296   25.0005 C   0  0  0  0  0  0  0  0  0  0  0  0
   -1.2478  -19.3646   23.3523 N   0  0  0  0  0  0  0  0  0  0  0  0
   -1.0379  -20.6165   22.7320 C   0  0  0  0  0  0  0  0  0  0  0  0
   -0.3104  -21.0707   21.6396 C   0  0  0  0  0  0  0  0  0  0  0  0
   -0.3409  -22.4514   21.3643 C   0  0  0  0  0  0  0  0  0  0  0  0
   -1.0673  -23.3432   22.1587 C   0  0  0  0  0  0  0  0  0  0  0  0
   -1.8202  -22.8742   23.2263 C   0  0  0  0  0  0  0  0  0  0  0  0
   -1.7862  -21.4842   23.4184 C   0  0  0  0  0  0  0  0  0  0  0  0
   -2.5813  -20.5088   24.0698 N   0  0  0  0  0  0  0  0  0  0  0  0
   -4.1908  -20.9254   23.9727 C   0  0  0  0  0  0  0  0  0  0  0  0
   -4.4678  -21.7937   22.6446 C   0  0  0  0  0  0  0  0  0  0  0  0
   -5.9445  -21.8206   22.3095 C   0  0  0  0  0  0  0  0  0  0  0  0
   -6.5689  -22.8241   23.2463 C   0  0  0  0  0  0  0  0  0  0  0  0
   -5.8873  -22.8211   24.6140 C   0  0  0  0  0  0  0  0  0  0  0  0
   -5.1172  -21.5586   25.0434 C   0  0  0  0  0  0  0  0  0  0  0  0
    4.5745  -12.8672   19.0258 N   0  0  0  0  0  0  0  0  0  0  0  0
    5.3968  -12.4852   17.8074 C   0  0  0  0  0  0  0  0  0  0  0  0
    6.1817  -11.1286   17.6891 C   0  0  0  0  0  0  0  0  0  0  0  0
    7.4731  -11.0715   18.4967 C   0  0  0  0  0  0  0  0  0  0  0  0
    8.4446  -12.0991   17.9580 C   0  0  0  0  0  0  0  0  0  0  0  0
    7.8157  -13.4818   18.0589 C   0  0  0  0  0  0  0  0  0  0  0  0
    6.4129  -13.5948   17.4332 C   0  0  0  0  0  0  0  0  0  0  0  0
    2.7438  -13.9544   20.7350 H   0  0  0  0  0  0  0  0  0  0  0  0
    3.9308  -14.3519   24.0025 H   0  0  0  0  0  0  0  0  0  0  0  0
    2.4543  -14.2009   23.4111 H   0  0  0  0  0  0  0  0  0  0  0  0
    2.5705  -15.9822   23.5695 H   0  0  0  0  0  0  0  0  0  0  0  0
    4.2825  -16.4948   24.1448 H   0  0  0  0  0  0  0  0  0  0  0  0
    2.6408  -19.1155   24.3820 H   0  0  0  0  0  0  0  0  0  0  0  0
    2.6512  -17.9743   25.6413 H   0  0  0  0  0  0  0  0  0  0  0  0
    0.1529  -18.7796   26.1140 H   0  0  0  0  0  0  0  0  0  0  0  0
    0.2957  -20.3800   21.0666 H   0  0  0  0  0  0  0  0  0  0  0  0
    0.2398  -22.8274   20.5250 H   0  0  0  0  0  0  0  0  0  0  0  0
   -1.0597  -24.4035   21.9213 H   0  0  0  0  0  0  0  0  0  0  0  0
   -2.4333  -23.5440   23.8126 H   0  0  0  0  0  0  0  0  0  0  0  0
   -4.6434  -19.9398   23.9225 H   0  0  0  0  0  0  0  0  0  0  0  0
   -3.9035  -21.4925   21.7540 H   0  0  0  0  0  0  0  0  0  0  0  0
   -4.1596  -22.8330   22.7851 H   0  0  0  0  0  0  0  0  0  0  0  0
   -6.3947  -20.8287   22.4258 H   0  0  0  0  0  0  0  0  0  0  0  0
   -6.1049  -22.1331   21.2719 H   0  0  0  0  0  0  0  0  0  0  0  0
   -6.4472  -23.8260   22.8181 H   0  0  0  0  0  0  0  0  0  0  0  0
   -7.6460  -22.6648   23.3006 H   0  0  0  0  0  0  0  0  0  0  0  0
   -6.6126  -23.0630   25.3885 H   0  0  0  0  0  0  0  0  0  0  0  0
   -5.1682  -23.6500   24.6245 H   0  0  0  0  0  0  0  0  0  0  0  0
   -5.7159  -20.7176   25.3880 H   0  0  0  0  0  0  0  0  0  0  0  0
   -4.7606  -21.8662   25.9971 H   0  0  0  0  0  0  0  0  0  0  0  0
    3.6683  -13.1596   18.9057 H   0  0  0  0  0  0  0  0  0  0  0  0
    4.6359  -12.4689   17.0152 H   0  0  0  0  0  0  0  0  0  0  0  0
    5.5987  -10.2300   17.8732 H   0  0  0  0  0  0  0  0  0  0  0  0
    6.4541  -11.0209   16.6275 H   0  0  0  0  0  0  0  0  0  0  0  0
    7.9312  -10.0845   18.4451 H   0  0  0  0  0  0  0  0  0  0  0  0
    7.2732  -11.2560   19.5554 H   0  0  0  0  0  0  0  0  0  0  0  0
    9.3786  -12.0726   18.5302 H   0  0  0  0  0  0  0  0  0  0  0  0
    8.6983  -11.8769   16.9147 H   0  0  0  0  0  0  0  0  0  0  0  0
    7.7606  -13.7653   19.1136 H   0  0  0  0  0  0  0  0  0  0  0  0
    8.4775  -14.2155   17.5834 H   0  0  0  0  0  0  0  0  0  0  0  0
    6.5460  -13.5675   16.3427 H   0  0  0  0  0  0  0  0  0  0  0  0
    5.9944  -14.5823   17.6630 H   0  0  0  0  0  0  0  0  0  0  0  0
  1  2  2  0
  2  3  1  0
  3  4  1  0
  4  5  1  0
  5  6  1  0
  6  7  1  0
  7  8  1  0
  8  9  2  0
  9 10  1  0
 10 11  2  0
 11 12  1  0
 12 13  2  0
 13 14  1  0
 14 15  2  0
 15 16  1  0
 16 17  1  0
 17 18  1  0
 18 19  1  0
 19 20  1  0
 20 21  1  0
 21 22  1  0
  2 23  1  0
 23 24  1  0
 24 25  1  0
 25 26  1  0
 26 27  1  0
 27 28  1  0
 28 29  1  0
 16  8  1  0
 22 17  1  0
 29 24  1  0
 15 10  1  0
  3 30  1  0
  4 31  1  0
  4 32  1  0
  5 33  1  0
  5 34  1  0
  6 35  1  0
  6 36  1  0
  7 37  1  0
 11 38  1  0
 12 39  1  0
 13 40  1  0
 14 41  1  0
 17 42  1  0
 18 43  1  0
 18 44  1  0
 19 45  1  0
 19 46  1  0
 20 47  1  0
 20 48  1  0
 21 49  1  0
 21 50  1  0
 22 51  1  0
 22 52  1  0
 23 53  1  0
 24 54  1  0
 25 55  1  0
 25 56  1  0
 26 57  1  0
 26 58  1  0
 27 59  1  0
 27 60  1  0
 28 61  1  0
 28 62  1  0
 29 63  1  0
 29 64  1  0
M  END
>  <Energy>  (603) 
1033.8652256262637

>  <compound_id>  (603) 
51646

>  <target_id>  (603) 
1

>  <reference_id>  (603) 
94

>  <inspiration_ids>  (603) 
[94, 124]

>  <energy_score>  (603) 
1076.9322640535374

>  <distance_score>  (603) 
13.05850568370438

>  <path>  (603) 
/opt/xchem-fragalysis-2/maxwin/BulkDock/SCRATCH/511020/C51646-P94/C51646-P94.minimised.mol

>  <scratch_subdir>  (603) 
/opt/xchem-fragalysis-2/maxwin/BulkDock/SCRATCH/511020/C51646-P94

>  <fragmenstein_runtime>  (603) 
97.18360638618469

>  <fragmenstein_outcome>  (603) 
too moved

>  <fragmenstein_mode>  (603) 
expansion

>  <fragmenstein_error>  (603) 


$$$$
C51646-P124
     RDKit          3D

 64 67  0  0  0  0  0  0  0  0999 V2000
   -3.5064  -22.9649   20.7539 O   0  0  0  0  0  0  0  0  0  0  0  0
   -3.0370  -22.3539   21.6418 C   0  0  0  0  0  0  0  0  0  0  0  0
   -3.4961  -22.2510   23.1134 N   0  0  0  0  0  0  0  0  0  0  0  0
   -4.6146  -22.9803   23.8625 C   0  0  0  0  0  0  0  0  0  0  0  0
   -5.6307  -22.1628   24.8286 C   0  0  0  0  0  0  0  0  0  0  0  0
   -6.5415  -23.0690   25.8791 C   0  0  0  0  0  0  0  0  0  0  0  0
   -7.7403  -22.8673   27.1519 N   0  0  0  0  0  0  0  0  0  0  0  0
   -9.1460  -23.7120   27.2278 C   0  0  0  0  0  0  0  0  0  0  0  0
   -9.5898  -24.4236   26.2016 N   0  0  0  0  0  0  0  0  0  0  0  0
  -10.7478  -25.0835   26.4722 C   0  0  0  0  0  0  0  0  0  0  0  0
  -11.5255  -25.8894   25.6467 C   0  0  0  0  0  0  0  0  0  0  0  0
  -12.7418  -25.3273   25.3127 C   0  0  0  0  0  0  0  0  0  0  0  0
  -13.0748  -24.0976   25.8616 C   0  0  0  0  0  0  0  0  0  0  0  0
  -12.3353  -23.5113   26.9186 C   0  0  0  0  0  0  0  0  0  0  0  0
  -11.2816  -24.2408   27.3859 C   0  0  0  0  0  0  0  0  0  0  0  0
  -10.1602  -24.0000   28.1656 N   0  0  0  0  0  0  0  0  0  0  0  0
  -10.0403  -24.7341   29.4435 C   0  0  0  0  0  0  0  0  0  0  0  0
  -10.2757  -26.2250   29.4942 C   0  0  0  0  0  0  0  0  0  0  0  0
  -10.1488  -26.7551   30.9345 C   0  0  0  0  0  0  0  0  0  0  0  0
  -10.0401  -25.7112   32.0527 C   0  0  0  0  0  0  0  0  0  0  0  0
  -10.7139  -24.3718   31.8755 C   0  0  0  0  0  0  0  0  0  0  0  0
  -10.9179  -23.9732   30.4324 C   0  0  0  0  0  0  0  0  0  0  0  0
   -1.7474  -21.4972   21.6738 N   0  0  0  0  0  0  0  0  0  0  0  0
   -0.7598  -21.1369   20.5585 C   0  0  0  0  0  0  0  0  0  0  0  0
    0.6998  -21.1968   21.0435 C   0  0  0  0  0  0  0  0  0  0  0  0
    1.7869  -20.7412   20.0488 C   0  0  0  0  0  0  0  0  0  0  0  0
    1.2920  -20.2548   18.6904 C   0  0  0  0  0  0  0  0  0  0  0  0
    0.0101  -19.4338   18.7192 C   0  0  0  0  0  0  0  0  0  0  0  0
   -0.9205  -19.7306   19.9087 C   0  0  0  0  0  0  0  0  0  0  0  0
   -2.9238  -21.5803   23.5941 H   0  0  0  0  0  0  0  0  0  0  0  0
   -4.1351  -23.7891   24.4199 H   0  0  0  0  0  0  0  0  0  0  0  0
   -5.2136  -23.4726   23.0865 H   0  0  0  0  0  0  0  0  0  0  0  0
   -6.2173  -21.7145   24.0240 H   0  0  0  0  0  0  0  0  0  0  0  0
   -5.1361  -21.3573   25.3680 H   0  0  0  0  0  0  0  0  0  0  0  0
   -6.9783  -23.7614   25.1709 H   0  0  0  0  0  0  0  0  0  0  0  0
   -5.7176  -23.4156   26.4931 H   0  0  0  0  0  0  0  0  0  0  0  0
   -7.2891  -22.7120   28.0427 H   0  0  0  0  0  0  0  0  0  0  0  0
  -11.1239  -26.7018   25.0609 H   0  0  0  0  0  0  0  0  0  0  0  0
  -13.3519  -25.7507   24.5205 H   0  0  0  0  0  0  0  0  0  0  0  0
  -13.9253  -23.5787   25.4319 H   0  0  0  0  0  0  0  0  0  0  0  0
  -12.5302  -22.5448   27.3455 H   0  0  0  0  0  0  0  0  0  0  0  0
   -8.9840  -24.7437   29.7012 H   0  0  0  0  0  0  0  0  0  0  0  0
  -11.2092  -26.5442   29.0216 H   0  0  0  0  0  0  0  0  0  0  0  0
   -9.4891  -26.6609   28.8804 H   0  0  0  0  0  0  0  0  0  0  0  0
  -10.9490  -27.4652   31.1498 H   0  0  0  0  0  0  0  0  0  0  0  0
   -9.2722  -27.4006   31.0113 H   0  0  0  0  0  0  0  0  0  0  0  0
   -8.9728  -25.5140   32.2188 H   0  0  0  0  0  0  0  0  0  0  0  0
  -10.4388  -26.1322   32.9812 H   0  0  0  0  0  0  0  0  0  0  0  0
  -10.1000  -23.6297   32.3975 H   0  0  0  0  0  0  0  0  0  0  0  0
  -11.6468  -24.3317   32.4385 H   0  0  0  0  0  0  0  0  0  0  0  0
  -11.8955  -24.1440   30.0335 H   0  0  0  0  0  0  0  0  0  0  0  0
  -10.9160  -22.8786   30.3596 H   0  0  0  0  0  0  0  0  0  0  0  0
   -1.6724  -21.0390   22.5680 H   0  0  0  0  0  0  0  0  0  0  0  0
   -0.9224  -21.8943   19.7824 H   0  0  0  0  0  0  0  0  0  0  0  0
    0.7770  -20.5768   21.9398 H   0  0  0  0  0  0  0  0  0  0  0  0
    0.9230  -22.2188   21.3748 H   0  0  0  0  0  0  0  0  0  0  0  0
    2.4147  -19.9956   20.5405 H   0  0  0  0  0  0  0  0  0  0  0  0
    2.4671  -21.5858   19.8749 H   0  0  0  0  0  0  0  0  0  0  0  0
    2.0834  -19.7183   18.1561 H   0  0  0  0  0  0  0  0  0  0  0  0
    1.0914  -21.1491   18.0839 H   0  0  0  0  0  0  0  0  0  0  0  0
    0.2194  -18.3599   18.6814 H   0  0  0  0  0  0  0  0  0  0  0  0
   -0.5385  -19.6400   17.7903 H   0  0  0  0  0  0  0  0  0  0  0  0
   -1.9519  -19.6026   19.5610 H   0  0  0  0  0  0  0  0  0  0  0  0
   -0.7277  -18.9658   20.6715 H   0  0  0  0  0  0  0  0  0  0  0  0
  1  2  2  0
  2  3  1  0
  3  4  1  0
  4  5  1  0
  5  6  1  0
  6  7  1  0
  7  8  1  0
  8  9  2  0
  9 10  1  0
 10 11  2  0
 11 12  1  0
 12 13  2  0
 13 14  1  0
 14 15  2  0
 15 16  1  0
 16 17  1  0
 17 18  1  0
 18 19  1  0
 19 20  1  0
 20 21  1  0
 21 22  1  0
  2 23  1  0
 23 24  1  0
 24 25  1  0
 25 26  1  0
 26 27  1  0
 27 28  1  0
 28 29  1  0
 16  8  1  0
 22 17  1  0
 29 24  1  0
 15 10  1  0
  3 30  1  0
  4 31  1  0
  4 32  1  0
  5 33  1  0
  5 34  1  0
  6 35  1  0
  6 36  1  0
  7 37  1  0
 11 38  1  0
 12 39  1  0
 13 40  1  0
 14 41  1  0
 17 42  1  0
 18 43  1  0
 18 44  1  0
 19 45  1  0
 19 46  1  0
 20 47  1  0
 20 48  1  0
 21 49  1  0
 21 50  1  0
 22 51  1  0
 22 52  1  0
 23 53  1  0
 24 54  1  0
 25 55  1  0
 25 56  1  0
 26 57  1  0
 26 58  1  0
 27 59  1  0
 27 60  1  0
 28 61  1  0
 28 62  1  0
 29 63  1  0
 29 64  1  0
M  END
>  <Energy>  (604) 
150.09282207138958

>  <compound_id>  (604) 
51646

>  <target_id>  (604) 
1

>  <reference_id>  (604) 
124

>  <inspiration_ids>  (604) 
[94, 124]

>  <energy_score>  (604) 
193.1598604986558

>  <distance_score>  (604) 
15.102779794274138

>  <path>  (604) 
/opt/xchem-fragalysis-2/maxwin/BulkDock/SCRATCH/511020/C51646-P124/C51646-P124.minimised.mol

>  <scratch_subdir>  (604) 
/opt/xchem-fragalysis-2/maxwin/BulkDock/SCRATCH/511020/C51646-P124

>  <fragmenstein_runtime>  (604) 
106.83223915100098

>  <fragmenstein_outcome>  (604) 
too moved

>  <fragmenstein_mode>  (604) 
expansion

>  <fragmenstein_error>  (604) 


$$$$
C51650-P94
     RDKit          3D

 59 63  0  0  0  0  0  0  0  0999 V2000
   -3.2446   -8.2023   18.9940 O   0  0  0  0  0  0  0  0  0  0  0  0
   -2.6382   -9.0075   19.6816 C   0  0  0  0  0  0  0  0  0  0  0  0
   -2.8557  -10.5296   19.7222 C   0  0  0  0  0  0  0  0  0  0  0  0
   -1.8298  -10.9488   20.7227 C   0  0  0  0  0  0  0  0  0  0  0  0
   -1.4742  -12.2258   21.2677 C   0  0  0  0  0  0  0  0  0  0  0  0
   -0.3329  -13.0198   22.6854 C   0  0  0  0  0  0  0  0  0  0  0  0
   -1.0174  -14.5457   24.0871 C   0  0  0  0  0  0  0  0  0  0  0  0
   -2.4957  -15.7738   25.2389 C   0  0  0  0  0  0  0  0  0  0  0  0
   -3.4349  -17.1297   26.8119 C   0  0  0  0  0  0  0  0  0  0  0  0
   -5.2511  -18.4011   27.4566 C   0  0  0  0  0  0  0  0  0  0  0  0
   -5.7915  -17.9819   28.4520 O   0  0  0  0  0  0  0  0  0  0  0  0
   -6.1934  -19.9919   26.7569 N   0  0  0  0  0  0  0  0  0  0  0  0
   -7.7063  -21.0647   27.4151 C   0  0  0  0  0  0  0  0  0  0  0  0
   -7.6658  -22.5058   27.5253 N   0  0  0  0  0  0  0  0  0  0  0  0
   -9.0555  -23.2493   28.1936 C   0  0  0  0  0  0  0  0  0  0  0  0
   -9.3274  -24.5794   28.7989 C   0  0  0  0  0  0  0  0  0  0  0  0
  -10.3102  -24.7520   29.8608 C   0  0  0  0  0  0  0  0  0  0  0  0
  -11.1273  -23.6838   30.3184 C   0  0  0  0  0  0  0  0  0  0  0  0
  -10.9998  -22.3923   29.7283 C   0  0  0  0  0  0  0  0  0  0  0  0
   -9.9845  -22.2540   28.6362 C   0  0  0  0  0  0  0  0  0  0  0  0
   -9.6472  -21.1845   27.7524 N   0  0  0  0  0  0  0  0  0  0  0  0
  -11.0347  -22.2019   26.8880 C   0  0  0  0  0  0  0  0  0  0  0  0
  -10.9013  -23.6656   25.7539 C   0  0  0  0  0  0  0  0  0  0  0  0
  -12.2086  -24.4048   25.3438 C   0  0  0  0  0  0  0  0  0  0  0  0
  -12.7760  -25.1920   26.4879 C   0  0  0  0  0  0  0  0  0  0  0  0
  -12.1919  -24.5664   27.7282 C   0  0  0  0  0  0  0  0  0  0  0  0
  -12.2122  -22.9813   27.6467 C   0  0  0  0  0  0  0  0  0  0  0  0
    0.4616  -11.5483   22.6633 C   0  0  0  0  0  0  0  0  0  0  0  0
   -0.0042  -10.1263   21.8917 C   0  0  0  0  0  0  0  0  0  0  0  0
   -1.1341   -9.8774   21.1526 C   0  0  0  0  0  0  0  0  0  0  0  0
   -1.6128   -8.7151   20.5768 N   0  0  0  0  0  0  0  0  0  0  0  0
   -2.6526  -10.9567   18.7373 H   0  0  0  0  0  0  0  0  0  0  0  0
   -3.8694  -10.7470   20.0652 H   0  0  0  0  0  0  0  0  0  0  0  0
   -2.0448  -12.9922   20.6662 H   0  0  0  0  0  0  0  0  0  0  0  0
   -0.0344  -14.4978   24.4911 H   0  0  0  0  0  0  0  0  0  0  0  0
   -1.2388  -15.0526   23.1766 H   0  0  0  0  0  0  0  0  0  0  0  0
   -3.2827  -15.6767   24.5035 H   0  0  0  0  0  0  0  0  0  0  0  0
   -2.3668  -14.8829   25.9040 H   0  0  0  0  0  0  0  0  0  0  0  0
   -3.2171  -16.6151   27.7634 H   0  0  0  0  0  0  0  0  0  0  0  0
   -2.5356  -17.8056   26.8652 H   0  0  0  0  0  0  0  0  0  0  0  0
   -5.6524  -20.3523   25.9825 H   0  0  0  0  0  0  0  0  0  0  0  0
   -8.7094  -25.4502   28.6180 H   0  0  0  0  0  0  0  0  0  0  0  0
  -10.4015  -25.7284   30.3368 H   0  0  0  0  0  0  0  0  0  0  0  0
  -11.8404  -23.8468   31.1247 H   0  0  0  0  0  0  0  0  0  0  0  0
  -11.5795  -21.5364   30.0530 H   0  0  0  0  0  0  0  0  0  0  0  0
  -11.4613  -21.3601   26.3631 H   0  0  0  0  0  0  0  0  0  0  0  0
  -10.5366  -23.4920   24.7362 H   0  0  0  0  0  0  0  0  0  0  0  0
  -10.1930  -24.3595   26.1967 H   0  0  0  0  0  0  0  0  0  0  0  0
  -12.9324  -23.6886   24.9383 H   0  0  0  0  0  0  0  0  0  0  0  0
  -12.0196  -25.1256   24.5473 H   0  0  0  0  0  0  0  0  0  0  0  0
  -13.8673  -25.1983   26.4534 H   0  0  0  0  0  0  0  0  0  0  0  0
  -12.4531  -26.2350   26.4419 H   0  0  0  0  0  0  0  0  0  0  0  0
  -12.6658  -24.9614   28.6180 H   0  0  0  0  0  0  0  0  0  0  0  0
  -11.2094  -25.0000   27.7512 H   0  0  0  0  0  0  0  0  0  0  0  0
  -13.0315  -22.9359   26.9565 H   0  0  0  0  0  0  0  0  0  0  0  0
  -12.6625  -22.4448   28.4747 H   0  0  0  0  0  0  0  0  0  0  0  0
    1.4171  -11.7069   23.2023 H   0  0  0  0  0  0  0  0  0  0  0  0
    0.6305   -9.2333   21.8872 H   0  0  0  0  0  0  0  0  0  0  0  0
   -1.1954   -7.8017   20.6571 H   0  0  0  0  0  0  0  0  0  0  0  0
  1  2  2  0
  2  3  1  0
  3  4  1  0
  4  5  2  0
  5  6  1  0
  6  7  1  0
  7  8  1  0
  8  9  1  0
  9 10  1  0
 10 11  2  0
 10 12  1  0
 12 13  1  0
 13 14  2  0
 14 15  1  0
 15 16  2  0
 16 17  1  0
 17 18  2  0
 18 19  1  0
 19 20  2  0
 20 21  1  0
 21 22  1  0
 22 23  1  0
 23 24  1  0
 24 25  1  0
 25 26  1  0
 26 27  1  0
  6 28  2  0
 28 29  1  0
 29 30  2  0
 30 31  1  0
 31  2  1  0
 30  4  1  0
 21 13  1  0
 27 22  1  0
 20 15  1  0
  3 32  1  0
  3 33  1  0
  5 34  1  0
  7 35  1  0
  7 36  1  0
  8 37  1  0
  8 38  1  0
  9 39  1  0
  9 40  1  0
 12 41  1  0
 16 42  1  0
 17 43  1  0
 18 44  1  0
 19 45  1  0
 22 46  1  0
 23 47  1  0
 23 48  1  0
 24 49  1  0
 24 50  1  0
 25 51  1  0
 25 52  1  0
 26 53  1  0
 26 54  1  0
 27 55  1  0
 27 56  1  0
 28 57  1  0
 29 58  1  0
 31 59  1  0
M  END
>  <Energy>  (605) 
1763.3018404869779

>  <compound_id>  (605) 
51650

>  <target_id>  (605) 
1

>  <reference_id>  (605) 
94

>  <inspiration_ids>  (605) 
[94, 124]

>  <energy_score>  (605) 
1695.395880737818

>  <distance_score>  (605) 
11.379220404704954

>  <path>  (605) 
/opt/xchem-fragalysis-2/maxwin/BulkDock/SCRATCH/511020/C51650-P94/C51650-P94.minimised.mol

>  <scratch_subdir>  (605) 
/opt/xchem-fragalysis-2/maxwin/BulkDock/SCRATCH/511020/C51650-P94

>  <fragmenstein_runtime>  (605) 
77.40693616867065

>  <fragmenstein_outcome>  (605) 
too moved

>  <fragmenstein_mode>  (605) 
expansion

>  <fragmenstein_error>  (605) 


$$$$
C51650-P124
     RDKit          3D

 59 63  0  0  0  0  0  0  0  0999 V2000
   -1.9101   -5.6352   16.9214 O   0  0  0  0  0  0  0  0  0  0  0  0
   -1.7587   -6.4107   17.8514 C   0  0  0  0  0  0  0  0  0  0  0  0
   -2.4423   -7.7722   18.0289 C   0  0  0  0  0  0  0  0  0  0  0  0
   -1.8759   -8.2422   19.3367 C   0  0  0  0  0  0  0  0  0  0  0  0
   -2.1060   -9.4501   20.0099 C   0  0  0  0  0  0  0  0  0  0  0  0
   -1.3866   -9.7415   21.1913 C   0  0  0  0  0  0  0  0  0  0  0  0
   -1.1986  -11.3516   21.5763 C   0  0  0  0  0  0  0  0  0  0  0  0
   -0.3368  -12.8915   22.6852 C   0  0  0  0  0  0  0  0  0  0  0  0
   -0.9478  -14.3409   24.0994 C   0  0  0  0  0  0  0  0  0  0  0  0
   -2.0547  -14.1107   25.7603 C   0  0  0  0  0  0  0  0  0  0  0  0
   -2.7499  -13.0876   25.6576 O   0  0  0  0  0  0  0  0  0  0  0  0
   -1.9462  -15.1121   27.4221 N   0  0  0  0  0  0  0  0  0  0  0  0
   -2.5886  -14.7743   29.0824 C   0  0  0  0  0  0  0  0  0  0  0  0
   -1.5552  -15.0002   30.0073 N   0  0  0  0  0  0  0  0  0  0  0  0
   -1.8580  -14.6814   31.3118 C   0  0  0  0  0  0  0  0  0  0  0  0
   -1.1119  -14.8153   32.4826 C   0  0  0  0  0  0  0  0  0  0  0  0
   -1.6474  -14.2790   33.6564 C   0  0  0  0  0  0  0  0  0  0  0  0
   -2.8535  -13.5730   33.6371 C   0  0  0  0  0  0  0  0  0  0  0  0
   -3.6140  -13.4687   32.4711 C   0  0  0  0  0  0  0  0  0  0  0  0
   -3.0991  -14.1198   31.3539 C   0  0  0  0  0  0  0  0  0  0  0  0
   -3.6712  -14.8025   30.2871 N   0  0  0  0  0  0  0  0  0  0  0  0
   -4.8748  -15.6514   30.6879 C   0  0  0  0  0  0  0  0  0  0  0  0
   -6.1603  -14.8006   30.8733 C   0  0  0  0  0  0  0  0  0  0  0  0
   -7.0182  -15.1946   32.0765 C   0  0  0  0  0  0  0  0  0  0  0  0
   -6.2550  -15.2465   33.3817 C   0  0  0  0  0  0  0  0  0  0  0  0
   -5.0737  -16.2003   33.3060 C   0  0  0  0  0  0  0  0  0  0  0  0
   -4.6545  -16.6152   31.8937 C   0  0  0  0  0  0  0  0  0  0  0  0
   -0.5541   -8.6742   21.6812 C   0  0  0  0  0  0  0  0  0  0  0  0
   -0.3277   -7.4588   21.0010 C   0  0  0  0  0  0  0  0  0  0  0  0
   -0.9858   -7.2855   19.8166 C   0  0  0  0  0  0  0  0  0  0  0  0
   -0.9297   -6.2099   18.9476 N   0  0  0  0  0  0  0  0  0  0  0  0
   -3.5247   -7.6364   18.0901 H   0  0  0  0  0  0  0  0  0  0  0  0
   -2.1552   -8.4361   17.2097 H   0  0  0  0  0  0  0  0  0  0  0  0
   -2.7316  -10.2074   19.5457 H   0  0  0  0  0  0  0  0  0  0  0  0
   -0.1937  -10.8593   21.5926 H   0  0  0  0  0  0  0  0  0  0  0  0
   -1.5617  -11.8509   20.6584 H   0  0  0  0  0  0  0  0  0  0  0  0
    0.4779  -12.0399   22.8662 H   0  0  0  0  0  0  0  0  0  0  0  0
   -0.1632  -13.8387   22.1385 H   0  0  0  0  0  0  0  0  0  0  0  0
   -1.4307  -15.1477   23.6118 H   0  0  0  0  0  0  0  0  0  0  0  0
    0.0742  -14.4442   24.4138 H   0  0  0  0  0  0  0  0  0  0  0  0
   -1.4344  -15.9048   27.2829 H   0  0  0  0  0  0  0  0  0  0  0  0
   -0.1401  -15.2920   32.4649 H   0  0  0  0  0  0  0  0  0  0  0  0
   -1.0888  -14.3631   34.5853 H   0  0  0  0  0  0  0  0  0  0  0  0
   -3.2278  -13.1304   34.5579 H   0  0  0  0  0  0  0  0  0  0  0  0
   -4.5842  -12.9916   32.4772 H   0  0  0  0  0  0  0  0  0  0  0  0
   -5.0639  -16.3170   29.8531 H   0  0  0  0  0  0  0  0  0  0  0  0
   -5.9262  -13.7331   30.9388 H   0  0  0  0  0  0  0  0  0  0  0  0
   -6.7637  -14.8794   29.9610 H   0  0  0  0  0  0  0  0  0  0  0  0
   -7.8623  -14.5021   32.1669 H   0  0  0  0  0  0  0  0  0  0  0  0
   -7.4297  -16.1925   31.9221 H   0  0  0  0  0  0  0  0  0  0  0  0
   -6.9279  -15.5698   34.1859 H   0  0  0  0  0  0  0  0  0  0  0  0
   -5.9306  -14.2433   33.6684 H   0  0  0  0  0  0  0  0  0  0  0  0
   -4.2276  -15.8014   33.8674 H   0  0  0  0  0  0  0  0  0  0  0  0
   -5.3368  -17.1172   33.8523 H   0  0  0  0  0  0  0  0  0  0  0  0
   -5.2972  -17.4823   31.6884 H   0  0  0  0  0  0  0  0  0  0  0  0
   -3.6298  -16.9954   31.9236 H   0  0  0  0  0  0  0  0  0  0  0  0
    0.0114   -8.7866   22.5858 H   0  0  0  0  0  0  0  0  0  0  0  0
    0.3504   -6.7176   21.4049 H   0  0  0  0  0  0  0  0  0  0  0  0
   -0.3633   -5.3853   19.0671 H   0  0  0  0  0  0  0  0  0  0  0  0
  1  2  2  0
  2  3  1  0
  3  4  1  0
  4  5  2  0
  5  6  1  0
  6  7  1  0
  7  8  1  0
  8  9  1  0
  9 10  1  0
 10 11  2  0
 10 12  1  0
 12 13  1  0
 13 14  2  0
 14 15  1  0
 15 16  2  0
 16 17  1  0
 17 18  2  0
 18 19  1  0
 19 20  2  0
 20 21  1  0
 21 22  1  0
 22 23  1  0
 23 24  1  0
 24 25  1  0
 25 26  1  0
 26 27  1  0
  6 28  2  0
 28 29  1  0
 29 30  2  0
 30 31  1  0
 31  2  1  0
 30  4  1  0
 21 13  1  0
 27 22  1  0
 20 15  1  0
  3 32  1  0
  3 33  1  0
  5 34  1  0
  7 35  1  0
  7 36  1  0
  8 37  1  0
  8 38  1  0
  9 39  1  0
  9 40  1  0
 12 41  1  0
 16 42  1  0
 17 43  1  0
 18 44  1  0
 19 45  1  0
 22 46  1  0
 23 47  1  0
 23 48  1  0
 24 49  1  0
 24 50  1  0
 25 51  1  0
 25 52  1  0
 26 53  1  0
 26 54  1  0
 27 55  1  0
 27 56  1  0
 28 57  1  0
 29 58  1  0
 31 59  1  0
M  END
>  <Energy>  (606) 
652.576272923018

>  <compound_id>  (606) 
51650

>  <target_id>  (606) 
1

>  <reference_id>  (606) 
124

>  <inspiration_ids>  (606) 
[94, 124]

>  <energy_score>  (606) 
584.6703131738425

>  <distance_score>  (606) 
14.30995217521387

>  <path>  (606) 
/opt/xchem-fragalysis-2/maxwin/BulkDock/SCRATCH/511020/C51650-P124/C51650-P124.minimised.mol

>  <scratch_subdir>  (606) 
/opt/xchem-fragalysis-2/maxwin/BulkDock/SCRATCH/511020/C51650-P124

>  <fragmenstein_runtime>  (606) 
67.15882778167725

>  <fragmenstein_outcome>  (606) 
too moved

>  <fragmenstein_mode>  (606) 
expansion

>  <fragmenstein_error>  (606) 


$$$$
C52436-P68
     RDKit          3D

 36 38  0  0  0  0  0  0  0  0999 V2000
    3.3877  -15.3519   17.9016 C   0  0  0  0  0  0  0  0  0  0  0  0
    4.1503  -16.3990   17.2857 O   0  0  0  0  0  0  0  0  0  0  0  0
    3.2771  -17.3866   16.7179 C   0  0  0  0  0  0  0  0  0  0  0  0
    3.7689  -18.6488   15.9231 C   0  0  0  0  0  0  0  0  0  0  0  0
    3.6349  -20.0595   16.5457 O   0  0  0  0  0  0  0  0  0  0  0  0
    2.4298  -20.5648   17.1145 C   0  0  0  0  0  0  0  0  0  0  0  0
    1.4810  -19.8430   17.4001 O   0  0  0  0  0  0  0  0  0  0  0  0
    2.4163  -22.1517   17.2984 C   0  0  0  0  0  0  0  0  0  0  0  0
    1.2096  -23.0313   17.9298 C   0  0  0  0  0  0  0  0  0  0  0  0
    0.5032  -22.6813   19.0891 C   0  0  0  0  0  0  0  0  0  0  0  0
   -0.4105  -23.5761   19.7398 C   0  0  0  0  0  0  0  0  0  0  0  0
   -0.6406  -24.8888   19.2624 C   0  0  0  0  0  0  0  0  0  0  0  0
   -1.4661  -25.8671   19.8271 N   0  0  0  0  0  0  0  0  0  0  0  0
   -1.4046  -26.9641   19.1057 C   0  0  0  0  0  0  0  0  0  0  0  0
   -0.3840  -26.9029   17.7275 S   0  0  0  0  0  0  0  0  0  0  0  0
    0.0483  -25.2622   18.1060 C   0  0  0  0  0  0  0  0  0  0  0  0
    0.9557  -24.3587   17.4450 C   0  0  0  0  0  0  0  0  0  0  0  0
    5.1724  -18.3066   15.3157 C   0  0  0  0  0  0  0  0  0  0  0  0
    6.3007  -18.0460   15.9642 N   0  0  0  0  0  0  0  0  0  0  0  0
    7.2239  -17.4037   15.1417 C   0  0  0  0  0  0  0  0  0  0  0  0
    6.8286  -17.2113   13.8424 C   0  0  0  0  0  0  0  0  0  0  0  0
    5.3000  -17.9518   13.6104 S   0  0  0  0  0  0  0  0  0  0  0  0
    4.0228  -14.5287   18.2172 H   0  0  0  0  0  0  0  0  0  0  0  0
    2.8221  -15.7228   18.7525 H   0  0  0  0  0  0  0  0  0  0  0  0
    2.6150  -14.9959   17.2243 H   0  0  0  0  0  0  0  0  0  0  0  0
    2.5916  -17.7172   17.4835 H   0  0  0  0  0  0  0  0  0  0  0  0
    2.7254  -16.8190   15.9844 H   0  0  0  0  0  0  0  0  0  0  0  0
    3.0768  -18.7599   15.0781 H   0  0  0  0  0  0  0  0  0  0  0  0
    3.2953  -22.4077   17.8990 H   0  0  0  0  0  0  0  0  0  0  0  0
    2.5647  -22.5469   16.2852 H   0  0  0  0  0  0  0  0  0  0  0  0
    0.6745  -21.7042   19.5435 H   0  0  0  0  0  0  0  0  0  0  0  0
   -0.9183  -23.2498   20.6438 H   0  0  0  0  0  0  0  0  0  0  0  0
   -1.9636  -27.8561   19.3568 H   0  0  0  0  0  0  0  0  0  0  0  0
    1.4958  -24.7190   16.5710 H   0  0  0  0  0  0  0  0  0  0  0  0
    8.1793  -17.1039   15.5526 H   0  0  0  0  0  0  0  0  0  0  0  0
    7.3690  -16.7544   13.0264 H   0  0  0  0  0  0  0  0  0  0  0  0
  1  2  1  0
  2  3  1  0
  3  4  1  0
  4  5  1  0
  5  6  1  0
  6  7  2  0
  6  8  1  0
  8  9  1  0
  9 10  2  0
 10 11  1  0
 11 12  2  0
 12 13  1  0
 13 14  2  0
 14 15  1  0
 15 16  1  0
 16 17  2  0
  4 18  1  0
 18 19  2  0
 19 20  1  0
 20 21  2  0
 21 22  1  0
 17  9  1  0
 22 18  1  0
 16 12  1  0
  1 23  1  0
  1 24  1  0
  1 25  1  0
  3 26  1  0
  3 27  1  0
  4 28  1  0
  8 29  1  0
  8 30  1  0
 10 31  1  0
 11 32  1  0
 14 33  1  0
 17 34  1  0
 20 35  1  0
 21 36  1  0
M  END
>  <Energy>  (607) 
115.50917011146865

>  <compound_id>  (607) 
52436

>  <target_id>  (607) 
1

>  <reference_id>  (607) 
68

>  <inspiration_ids>  (607) 
[68, 60]

>  <energy_score>  (607) 
-84.56272602482665

>  <distance_score>  (607) 
16.827434911119585

>  <path>  (607) 
/opt/xchem-fragalysis-2/maxwin/BulkDock/SCRATCH/511020/C52436-P68/C52436-P68.minimised.mol

>  <scratch_subdir>  (607) 
/opt/xchem-fragalysis-2/maxwin/BulkDock/SCRATCH/511020/C52436-P68

>  <fragmenstein_runtime>  (607) 
16.885658740997314

>  <fragmenstein_outcome>  (607) 
too moved

>  <fragmenstein_mode>  (607) 
expansion

>  <fragmenstein_error>  (607) 


$$$$
C52436-P60
     RDKit          3D

 36 38  0  0  0  0  0  0  0  0999 V2000
    6.2207  -10.2310   12.8721 C   0  0  0  0  0  0  0  0  0  0  0  0
    5.8000  -11.5977   12.8735 O   0  0  0  0  0  0  0  0  0  0  0  0
    4.4164  -11.8668   12.4834 C   0  0  0  0  0  0  0  0  0  0  0  0
    3.3181  -11.5987   13.5825 C   0  0  0  0  0  0  0  0  0  0  0  0
    2.1225  -12.7214   13.7870 O   0  0  0  0  0  0  0  0  0  0  0  0
    2.0223  -12.8658   15.1761 C   0  0  0  0  0  0  0  0  0  0  0  0
    2.1484  -11.7750   15.7110 O   0  0  0  0  0  0  0  0  0  0  0  0
    1.8852  -14.6073   16.4854 C   0  0  0  0  0  0  0  0  0  0  0  0
    2.4901  -16.5663   16.3135 C   0  0  0  0  0  0  0  0  0  0  0  0
    1.7747  -17.8486   16.9058 C   0  0  0  0  0  0  0  0  0  0  0  0
    1.7149  -19.2896   16.6291 C   0  0  0  0  0  0  0  0  0  0  0  0
    2.5554  -19.8781   15.7263 C   0  0  0  0  0  0  0  0  0  0  0  0
    2.5925  -21.2380   15.4437 N   0  0  0  0  0  0  0  0  0  0  0  0
    3.6032  -21.4520   14.6454 C   0  0  0  0  0  0  0  0  0  0  0  0
    4.5426  -20.0658   14.2326 S   0  0  0  0  0  0  0  0  0  0  0  0
    3.5037  -19.0224   15.1673 C   0  0  0  0  0  0  0  0  0  0  0  0
    3.5705  -17.4708   15.4375 C   0  0  0  0  0  0  0  0  0  0  0  0
    2.9527  -10.0906   13.5036 C   0  0  0  0  0  0  0  0  0  0  0  0
    2.6684   -9.4426   12.3839 N   0  0  0  0  0  0  0  0  0  0  0  0
    2.8345   -8.0709   12.5397 C   0  0  0  0  0  0  0  0  0  0  0  0
    3.2361   -7.6511   13.7841 C   0  0  0  0  0  0  0  0  0  0  0  0
    3.3939   -9.0045   14.8112 S   0  0  0  0  0  0  0  0  0  0  0  0
    5.8211   -9.6984   12.0051 H   0  0  0  0  0  0  0  0  0  0  0  0
    5.9314   -9.7418   13.7993 H   0  0  0  0  0  0  0  0  0  0  0  0
    7.3126  -10.2189   12.8174 H   0  0  0  0  0  0  0  0  0  0  0  0
    4.2045  -11.3374   11.5472 H   0  0  0  0  0  0  0  0  0  0  0  0
    4.3991  -12.9290   12.2278 H   0  0  0  0  0  0  0  0  0  0  0  0
    3.9079  -11.6911   14.4913 H   0  0  0  0  0  0  0  0  0  0  0  0
    0.8362  -14.5825   16.4718 H   0  0  0  0  0  0  0  0  0  0  0  0
    2.1497  -14.4260   17.5554 H   0  0  0  0  0  0  0  0  0  0  0  0
    1.2450  -17.7811   17.8452 H   0  0  0  0  0  0  0  0  0  0  0  0
    1.0470  -19.9493   17.1543 H   0  0  0  0  0  0  0  0  0  0  0  0
    3.8500  -22.4347   14.2667 H   0  0  0  0  0  0  0  0  0  0  0  0
    4.5164  -17.0818   15.0628 H   0  0  0  0  0  0  0  0  0  0  0  0
    2.6409   -7.4210   11.6948 H   0  0  0  0  0  0  0  0  0  0  0  0
    3.4199   -6.6454   14.1323 H   0  0  0  0  0  0  0  0  0  0  0  0
  1  2  1  0
  2  3  1  0
  3  4  1  0
  4  5  1  0
  5  6  1  0
  6  7  2  0
  6  8  1  0
  8  9  1  0
  9 10  2  0
 10 11  1  0
 11 12  2  0
 12 13  1  0
 13 14  2  0
 14 15  1  0
 15 16  1  0
 16 17  2  0
  4 18  1  0
 18 19  2  0
 19 20  1  0
 20 21  2  0
 21 22  1  0
 17  9  1  0
 22 18  1  0
 16 12  1  0
  1 23  1  0
  1 24  1  0
  1 25  1  0
  3 26  1  0
  3 27  1  0
  4 28  1  0
  8 29  1  0
  8 30  1  0
 10 31  1  0
 11 32  1  0
 14 33  1  0
 17 34  1  0
 20 35  1  0
 21 36  1  0
M  END
>  <Energy>  (608) 
456.86002714214322

>  <compound_id>  (608) 
52436

>  <target_id>  (608) 
1

>  <reference_id>  (608) 
60

>  <inspiration_ids>  (608) 
[68, 60]

>  <energy_score>  (608) 
256.7881310058324

>  <distance_score>  (608) 
18.85785818544937

>  <path>  (608) 
/opt/xchem-fragalysis-2/maxwin/BulkDock/SCRATCH/511020/C52436-P60/C52436-P60.minimised.mol

>  <scratch_subdir>  (608) 
/opt/xchem-fragalysis-2/maxwin/BulkDock/SCRATCH/511020/C52436-P60

>  <fragmenstein_runtime>  (608) 
8.911867141723633

>  <fragmenstein_outcome>  (608) 
too moved

>  <fragmenstein_mode>  (608) 
expansion

>  <fragmenstein_error>  (608) 


$$$$
C52439-P68
     RDKit          3D

 47 50  0  0  0  0  0  0  0  0999 V2000
    7.0542  -10.1886   22.6765 O   0  0  0  0  0  0  0  0  0  0  0  0
    7.4737  -10.3720   21.5668 C   0  0  0  0  0  0  0  0  0  0  0  0
    6.4174  -10.7342   20.4515 C   0  0  0  0  0  0  0  0  0  0  0  0
    5.9879  -12.1391   20.5235 N   0  0  0  0  0  0  0  0  0  0  0  0
    5.2077  -12.6556   19.4299 C   0  0  0  0  0  0  0  0  0  0  0  0
    4.8234  -14.1556   19.5448 C   0  0  0  0  0  0  0  0  0  0  0  0
    5.8947  -15.8148   19.8207 N   0  0  0  0  0  0  0  0  0  0  0  0
    4.8567  -17.3470   19.6962 C   0  0  0  0  0  0  0  0  0  0  0  0
    4.8099  -18.6333   21.0351 N   0  0  0  0  0  0  0  0  0  0  0  0
    3.1335  -19.8746   21.0744 C   0  0  0  0  0  0  0  0  0  0  0  0
    2.4941  -20.0394   19.2115 C   0  0  0  0  0  0  0  0  0  0  0  0
    3.3659  -18.2026   17.8857 S   0  0  0  0  0  0  0  0  0  0  0  0
    7.5167  -14.7147   20.0904 C   0  0  0  0  0  0  0  0  0  0  0  0
    7.0236  -13.0634   20.9487 C   0  0  0  0  0  0  0  0  0  0  0  0
    8.8412  -10.2210   21.0180 N   0  0  0  0  0  0  0  0  0  0  0  0
   10.0779   -9.7057   21.6382 C   0  0  0  0  0  0  0  0  0  0  0  0
   11.5058  -10.2600   21.6777 C   0  0  0  0  0  0  0  0  0  0  0  0
   12.4594   -9.0921   22.0210 C   0  0  0  0  0  0  0  0  0  0  0  0
   12.1040   -7.8170   21.9869 N   0  0  0  0  0  0  0  0  0  0  0  0
   13.2264   -6.9938   21.9103 C   0  0  0  0  0  0  0  0  0  0  0  0
   13.2354   -5.6206   21.5658 C   0  0  0  0  0  0  0  0  0  0  0  0
   14.4496   -4.9542   21.3992 C   0  0  0  0  0  0  0  0  0  0  0  0
   15.6469   -5.6298   21.6080 C   0  0  0  0  0  0  0  0  0  0  0  0
   15.6668   -6.9859   21.9692 C   0  0  0  0  0  0  0  0  0  0  0  0
   14.4411   -7.6635   22.0770 C   0  0  0  0  0  0  0  0  0  0  0  0
   14.1299   -9.3534   22.3233 S   0  0  0  0  0  0  0  0  0  0  0  0
    6.8200  -10.4593   19.4797 H   0  0  0  0  0  0  0  0  0  0  0  0
    5.5504  -10.0817   20.6122 H   0  0  0  0  0  0  0  0  0  0  0  0
    5.5298  -12.3491   18.4461 H   0  0  0  0  0  0  0  0  0  0  0  0
    4.2473  -12.1158   19.4830 H   0  0  0  0  0  0  0  0  0  0  0  0
    4.2102  -13.9360   20.4542 H   0  0  0  0  0  0  0  0  0  0  0  0
    4.1599  -14.4248   18.6966 H   0  0  0  0  0  0  0  0  0  0  0  0
    2.5046  -19.9487   21.9700 H   0  0  0  0  0  0  0  0  0  0  0  0
    1.5019  -20.3018   18.8603 H   0  0  0  0  0  0  0  0  0  0  0  0
    8.2447  -15.1543   20.7294 H   0  0  0  0  0  0  0  0  0  0  0  0
    8.4159  -14.6360   19.4132 H   0  0  0  0  0  0  0  0  0  0  0  0
    7.9029  -12.4780   20.6699 H   0  0  0  0  0  0  0  0  0  0  0  0
    7.1861  -12.8782   21.9663 H   0  0  0  0  0  0  0  0  0  0  0  0
    8.8171  -10.3819   20.0121 H   0  0  0  0  0  0  0  0  0  0  0  0
    9.8274   -9.5944   22.6960 H   0  0  0  0  0  0  0  0  0  0  0  0
   10.1553   -8.7414   21.1350 H   0  0  0  0  0  0  0  0  0  0  0  0
   11.7813  -10.7252   20.7268 H   0  0  0  0  0  0  0  0  0  0  0  0
   11.5846  -11.0348   22.4491 H   0  0  0  0  0  0  0  0  0  0  0  0
   12.3078   -5.0974   21.3598 H   0  0  0  0  0  0  0  0  0  0  0  0
   14.4561   -3.9089   21.1001 H   0  0  0  0  0  0  0  0  0  0  0  0
   16.5893   -5.1010   21.4766 H   0  0  0  0  0  0  0  0  0  0  0  0
   16.6095   -7.5094   22.0952 H   0  0  0  0  0  0  0  0  0  0  0  0
  1  2  2  0
  2  3  1  0
  3  4  1  0
  4  5  1  0
  5  6  1  0
  6  7  1  0
  7  8  1  0
  8  9  2  0
  9 10  1  0
 10 11  2  0
 11 12  1  0
  7 13  1  0
 13 14  1  0
  2 15  1  0
 15 16  1  0
 16 17  1  0
 17 18  1  0
 18 19  2  0
 19 20  1  0
 20 21  2  0
 21 22  1  0
 22 23  2  0
 23 24  1  0
 24 25  2  0
 25 26  1  0
 14  4  1  0
 26 18  1  0
 12  8  1  0
 25 20  1  0
  3 27  1  0
  3 28  1  0
  5 29  1  0
  5 30  1  0
  6 31  1  0
  6 32  1  0
 10 33  1  0
 11 34  1  0
 13 35  1  0
 13 36  1  0
 14 37  1  0
 14 38  1  0
 15 39  1  0
 16 40  1  0
 16 41  1  0
 17 42  1  0
 17 43  1  0
 21 44  1  0
 22 45  1  0
 23 46  1  0
 24 47  1  0
M  END
>  <Energy>  (609) 
1098.1652460740775

>  <compound_id>  (609) 
52439

>  <target_id>  (609) 
1

>  <reference_id>  (609) 
68

>  <inspiration_ids>  (609) 
[68, 60]

>  <energy_score>  (609) 
869.180029919534

>  <distance_score>  (609) 
14.195547838693983

>  <path>  (609) 
/opt/xchem-fragalysis-2/maxwin/BulkDock/SCRATCH/511020/C52439-P68/C52439-P68.minimised.mol

>  <scratch_subdir>  (609) 
/opt/xchem-fragalysis-2/maxwin/BulkDock/SCRATCH/511020/C52439-P68

>  <fragmenstein_runtime>  (609) 
20.2472984790802

>  <fragmenstein_outcome>  (609) 
too moved

>  <fragmenstein_mode>  (609) 
expansion

>  <fragmenstein_error>  (609) 


$$$$
C52439-P60
     RDKit          3D

 47 50  0  0  0  0  0  0  0  0999 V2000
   13.3209  -17.9856   19.3504 O   0  0  0  0  0  0  0  0  0  0  0  0
   12.6538  -17.3586   18.5750 C   0  0  0  0  0  0  0  0  0  0  0  0
   11.2550  -17.9110   18.0913 C   0  0  0  0  0  0  0  0  0  0  0  0
   11.0291  -19.3838   18.1618 N   0  0  0  0  0  0  0  0  0  0  0  0
    9.9984  -19.8372   17.1989 C   0  0  0  0  0  0  0  0  0  0  0  0
    8.7361  -20.5942   17.7443 C   0  0  0  0  0  0  0  0  0  0  0  0
    9.0669  -21.7251   18.6263 N   0  0  0  0  0  0  0  0  0  0  0  0
    8.3511  -22.9284   18.7209 C   0  0  0  0  0  0  0  0  0  0  0  0
    8.4096  -23.7746   19.7420 N   0  0  0  0  0  0  0  0  0  0  0  0
    7.7068  -24.9584   19.5176 C   0  0  0  0  0  0  0  0  0  0  0  0
    7.0601  -25.0342   18.3089 C   0  0  0  0  0  0  0  0  0  0  0  0
    7.2679  -23.5422   17.4744 S   0  0  0  0  0  0  0  0  0  0  0  0
   10.2426  -21.4690   19.4990 C   0  0  0  0  0  0  0  0  0  0  0  0
   10.7134  -19.9467   19.5004 C   0  0  0  0  0  0  0  0  0  0  0  0
   12.8571  -16.0159   18.0015 N   0  0  0  0  0  0  0  0  0  0  0  0
   13.8867  -14.9930   18.2764 C   0  0  0  0  0  0  0  0  0  0  0  0
   13.4270  -13.5385   17.9665 C   0  0  0  0  0  0  0  0  0  0  0  0
   14.1377  -12.4468   18.7352 C   0  0  0  0  0  0  0  0  0  0  0  0
   15.0844  -11.6747   18.2465 N   0  0  0  0  0  0  0  0  0  0  0  0
   15.3562  -10.6194   19.1112 C   0  0  0  0  0  0  0  0  0  0  0  0
   16.2332   -9.5383   18.8676 C   0  0  0  0  0  0  0  0  0  0  0  0
   16.3334   -8.4912   19.7891 C   0  0  0  0  0  0  0  0  0  0  0  0
   15.6200   -8.5419   20.9810 C   0  0  0  0  0  0  0  0  0  0  0  0
   14.7932   -9.6342   21.2792 C   0  0  0  0  0  0  0  0  0  0  0  0
   14.6510  -10.6497   20.3150 C   0  0  0  0  0  0  0  0  0  0  0  0
   13.6334  -12.0444   20.3340 S   0  0  0  0  0  0  0  0  0  0  0  0
   11.1751  -17.6102   17.0390 H   0  0  0  0  0  0  0  0  0  0  0  0
   10.4822  -17.3855   18.6560 H   0  0  0  0  0  0  0  0  0  0  0  0
    9.6353  -19.0116   16.5749 H   0  0  0  0  0  0  0  0  0  0  0  0
   10.5100  -20.5231   16.5111 H   0  0  0  0  0  0  0  0  0  0  0  0
    8.1222  -19.8829   18.3080 H   0  0  0  0  0  0  0  0  0  0  0  0
    8.1467  -20.9181   16.8805 H   0  0  0  0  0  0  0  0  0  0  0  0
    7.7223  -25.7301   20.2777 H   0  0  0  0  0  0  0  0  0  0  0  0
    6.4622  -25.8384   17.9044 H   0  0  0  0  0  0  0  0  0  0  0  0
   10.0160  -21.7555   20.5305 H   0  0  0  0  0  0  0  0  0  0  0  0
   11.0764  -22.0913   19.1521 H   0  0  0  0  0  0  0  0  0  0  0  0
    9.9139  -19.3561   19.9653 H   0  0  0  0  0  0  0  0  0  0  0  0
   11.5961  -19.8681   20.1439 H   0  0  0  0  0  0  0  0  0  0  0  0
   12.1361  -15.8357   17.3159 H   0  0  0  0  0  0  0  0  0  0  0  0
   14.1760  -15.1084   19.3264 H   0  0  0  0  0  0  0  0  0  0  0  0
   14.7631  -15.2477   17.6709 H   0  0  0  0  0  0  0  0  0  0  0  0
   12.3484  -13.4480   18.1485 H   0  0  0  0  0  0  0  0  0  0  0  0
   13.5558  -13.3564   16.8919 H   0  0  0  0  0  0  0  0  0  0  0  0
   16.7802   -9.5091   17.9306 H   0  0  0  0  0  0  0  0  0  0  0  0
   16.9846   -7.6480   19.5739 H   0  0  0  0  0  0  0  0  0  0  0  0
   15.7223   -7.7334   21.7023 H   0  0  0  0  0  0  0  0  0  0  0  0
   14.2484   -9.6741   22.2166 H   0  0  0  0  0  0  0  0  0  0  0  0
  1  2  2  0
  2  3  1  0
  3  4  1  0
  4  5  1  0
  5  6  1  0
  6  7  1  0
  7  8  1  0
  8  9  2  0
  9 10  1  0
 10 11  2  0
 11 12  1  0
  7 13  1  0
 13 14  1  0
  2 15  1  0
 15 16  1  0
 16 17  1  0
 17 18  1  0
 18 19  2  0
 19 20  1  0
 20 21  2  0
 21 22  1  0
 22 23  2  0
 23 24  1  0
 24 25  2  0
 25 26  1  0
 14  4  1  0
 26 18  1  0
 12  8  1  0
 25 20  1  0
  3 27  1  0
  3 28  1  0
  5 29  1  0
  5 30  1  0
  6 31  1  0
  6 32  1  0
 10 33  1  0
 11 34  1  0
 13 35  1  0
 13 36  1  0
 14 37  1  0
 14 38  1  0
 15 39  1  0
 16 40  1  0
 16 41  1  0
 17 42  1  0
 17 43  1  0
 21 44  1  0
 22 45  1  0
 23 46  1  0
 24 47  1  0
M  END
>  <Energy>  (610) 
127.60732387625666

>  <compound_id>  (610) 
52439

>  <target_id>  (610) 
1

>  <reference_id>  (610) 
60

>  <inspiration_ids>  (610) 
[68, 60]

>  <energy_score>  (610) 
-101.37789227827034

>  <distance_score>  (610) 
15.398079174854137

>  <path>  (610) 
/opt/xchem-fragalysis-2/maxwin/BulkDock/SCRATCH/511020/C52439-P60/C52439-P60.minimised.mol

>  <scratch_subdir>  (610) 
/opt/xchem-fragalysis-2/maxwin/BulkDock/SCRATCH/511020/C52439-P60

>  <fragmenstein_runtime>  (610) 
11.597947120666504

>  <fragmenstein_outcome>  (610) 
too moved

>  <fragmenstein_mode>  (610) 
expansion

>  <fragmenstein_error>  (610) 


$$$$
C6701-P68
     RDKit          3D

 39 42  0  0  0  0  0  0  0  0999 V2000
   -1.2994  -18.6788   14.3819 O   0  0  0  0  0  0  0  0  0  0  0  0
   -1.5242  -18.6234   15.5111 C   0  0  0  0  0  0  0  0  0  0  0  0
   -3.4007  -18.4191   15.7382 C   0  0  0  0  0  0  0  0  0  0  0  0
   -4.2356  -17.9779   16.7856 C   0  0  0  0  0  0  0  0  0  0  0  0
   -5.2993  -18.8077   17.3174 C   0  0  0  0  0  0  0  0  0  0  0  0
   -5.5774  -20.1001   16.8017 C   0  0  0  0  0  0  0  0  0  0  0  0
   -6.3574  -21.1085   17.3785 N   0  0  0  0  0  0  0  0  0  0  0  0
   -6.3293  -22.1812   16.6184 C   0  0  0  0  0  0  0  0  0  0  0  0
   -5.4379  -22.0433   15.1579 S   0  0  0  0  0  0  0  0  0  0  0  0
   -4.9622  -20.4237   15.5924 C   0  0  0  0  0  0  0  0  0  0  0  0
   -3.9965  -19.5351   14.9793 C   0  0  0  0  0  0  0  0  0  0  0  0
   -0.3197  -18.8507   17.1025 N   0  0  0  0  0  0  0  0  0  0  0  0
    1.5221  -19.0782   17.4396 C   0  0  0  0  0  0  0  0  0  0  0  0
    2.3756  -17.3410   17.4096 C   0  0  0  0  0  0  0  0  0  0  0  0
    3.6927  -17.6714   17.1952 N   0  0  0  0  0  0  0  0  0  0  0  0
    3.4150  -18.7977   16.3026 C   0  0  0  0  0  0  0  0  0  0  0  0
    4.3438  -18.4264   15.0812 C   0  0  0  0  0  0  0  0  0  0  0  0
    5.6681  -17.9183   15.3431 C   0  0  0  0  0  0  0  0  0  0  0  0
    6.4994  -17.3223   14.3869 C   0  0  0  0  0  0  0  0  0  0  0  0
    6.0373  -17.3096   13.1012 C   0  0  0  0  0  0  0  0  0  0  0  0
    4.8631  -17.8781   12.7612 N   0  0  0  0  0  0  0  0  0  0  0  0
    4.0598  -18.4343   13.7399 C   0  0  0  0  0  0  0  0  0  0  0  0
    1.6149  -19.4425   16.8153 C   0  0  0  0  0  0  0  0  0  0  0  0
   -3.9710  -17.0874   17.3442 H   0  0  0  0  0  0  0  0  0  0  0  0
   -5.8000  -18.4918   18.2301 H   0  0  0  0  0  0  0  0  0  0  0  0
   -6.8549  -23.0904   16.8795 H   0  0  0  0  0  0  0  0  0  0  0  0
   -3.4366  -19.9268   14.1274 H   0  0  0  0  0  0  0  0  0  0  0  0
    1.7643  -19.9079   18.4473 H   0  0  0  0  0  0  0  0  0  0  0  0
    1.2583  -18.6048   18.4853 H   0  0  0  0  0  0  0  0  0  0  0  0
    2.2331  -16.7323   16.5149 H   0  0  0  0  0  0  0  0  0  0  0  0
    2.0094  -16.6622   18.1937 H   0  0  0  0  0  0  0  0  0  0  0  0
    4.1430  -16.8794   16.7355 H   0  0  0  0  0  0  0  0  0  0  0  0
    3.9516  -19.6892   16.6652 H   0  0  0  0  0  0  0  0  0  0  0  0
    6.0580  -17.9599   16.3539 H   0  0  0  0  0  0  0  0  0  0  0  0
    7.4697  -16.9208   14.6482 H   0  0  0  0  0  0  0  0  0  0  0  0
    6.6042  -16.8820   12.2818 H   0  0  0  0  0  0  0  0  0  0  0  0
    3.1356  -18.8642   13.3598 H   0  0  0  0  0  0  0  0  0  0  0  0
    1.6187  -19.4160   15.6014 H   0  0  0  0  0  0  0  0  0  0  0  0
    1.6627  -20.7058   16.7254 H   0  0  0  0  0  0  0  0  0  0  0  0
  1  2  2  0
  2  3  1  0
  3  4  2  0
  4  5  1  0
  5  6  2  0
  6  7  1  0
  7  8  2  0
  8  9  1  0
  9 10  1  0
 10 11  2  0
  2 12  1  0
 12 13  1  0
 13 14  1  0
 14 15  1  0
 15 16  1  0
 16 17  1  0
 17 18  2  0
 18 19  1  0
 19 20  2  0
 20 21  1  0
 21 22  2  0
 16 23  1  0
 11  3  1  0
 23 12  1  0
 10  6  1  0
 22 17  1  0
  4 24  1  0
  5 25  1  0
  8 26  1  0
 11 27  1  0
 13 28  1  0
 13 29  1  0
 14 30  1  0
 14 31  1  0
 15 32  1  0
 16 33  1  0
 18 34  1  0
 19 35  1  0
 20 36  1  0
 22 37  1  0
 23 38  1  0
 23 39  1  0
M  END
>  <Energy>  (611) 
1132.5851806709029

>  <compound_id>  (611) 
6701

>  <target_id>  (611) 
1

>  <reference_id>  (611) 
68

>  <inspiration_ids>  (611) 
[68, 60]

>  <energy_score>  (611) 
939.907916539966

>  <distance_score>  (611) 
18.19836599252924

>  <path>  (611) 
/opt/xchem-fragalysis-2/maxwin/BulkDock/SCRATCH/511020/C6701-P68/C6701-P68.minimised.mol

>  <scratch_subdir>  (611) 
/opt/xchem-fragalysis-2/maxwin/BulkDock/SCRATCH/511020/C6701-P68

>  <fragmenstein_runtime>  (611) 
27.16021966934204

>  <fragmenstein_outcome>  (611) 
too moved

>  <fragmenstein_mode>  (611) 
expansion

>  <fragmenstein_error>  (611) 


$$$$
C6701-P60
     RDKit          3D

 39 42  0  0  0  0  0  0  0  0999 V2000
   -2.5645  -21.1436   22.0938 O   0  0  0  0  0  0  0  0  0  0  0  0
   -1.9382  -20.4606   22.8015 C   0  0  0  0  0  0  0  0  0  0  0  0
   -1.8019  -21.1439   24.1980 C   0  0  0  0  0  0  0  0  0  0  0  0
   -2.9993  -21.2757   24.9491 C   0  0  0  0  0  0  0  0  0  0  0  0
   -3.5581  -22.5289   25.3718 C   0  0  0  0  0  0  0  0  0  0  0  0
   -2.9603  -23.7542   25.0117 C   0  0  0  0  0  0  0  0  0  0  0  0
   -3.4604  -25.0358   25.2428 N   0  0  0  0  0  0  0  0  0  0  0  0
   -2.6648  -25.9237   24.6897 C   0  0  0  0  0  0  0  0  0  0  0  0
   -1.2604  -25.2994   23.9258 S   0  0  0  0  0  0  0  0  0  0  0  0
   -1.7482  -23.6788   24.3262 C   0  0  0  0  0  0  0  0  0  0  0  0
   -1.1360  -22.4118   23.9979 C   0  0  0  0  0  0  0  0  0  0  0  0
   -1.0115  -18.8383   22.5118 N   0  0  0  0  0  0  0  0  0  0  0  0
   -1.1784  -17.8976   20.7750 C   0  0  0  0  0  0  0  0  0  0  0  0
   -2.1849  -16.8185   19.8768 C   0  0  0  0  0  0  0  0  0  0  0  0
   -1.3050  -15.7377   19.6379 N   0  0  0  0  0  0  0  0  0  0  0  0
    0.3692  -16.1150   20.3627 C   0  0  0  0  0  0  0  0  0  0  0  0
    2.0276  -14.9678   20.1050 C   0  0  0  0  0  0  0  0  0  0  0  0
    2.5720  -14.5943   18.7013 C   0  0  0  0  0  0  0  0  0  0  0  0
    3.7741  -13.6145   18.5651 C   0  0  0  0  0  0  0  0  0  0  0  0
    4.5625  -12.9674   19.5698 C   0  0  0  0  0  0  0  0  0  0  0  0
    4.0673  -12.9665   20.7854 N   0  0  0  0  0  0  0  0  0  0  0  0
    2.9866  -13.9611   21.0349 C   0  0  0  0  0  0  0  0  0  0  0  0
   -0.5381  -17.7109   21.0289 C   0  0  0  0  0  0  0  0  0  0  0  0
   -3.6233  -20.4021   25.1252 H   0  0  0  0  0  0  0  0  0  0  0  0
   -4.5112  -22.5456   25.8941 H   0  0  0  0  0  0  0  0  0  0  0  0
   -2.8714  -26.9858   24.7182 H   0  0  0  0  0  0  0  0  0  0  0  0
   -0.2645  -22.4366   23.3404 H   0  0  0  0  0  0  0  0  0  0  0  0
   -2.2527  -17.8478   21.0921 H   0  0  0  0  0  0  0  0  0  0  0  0
   -1.6929  -18.6279   19.9494 H   0  0  0  0  0  0  0  0  0  0  0  0
   -3.1010  -16.4571   20.3491 H   0  0  0  0  0  0  0  0  0  0  0  0
   -2.5790  -17.3510   19.0143 H   0  0  0  0  0  0  0  0  0  0  0  0
   -1.8126  -15.0329   20.1786 H   0  0  0  0  0  0  0  0  0  0  0  0
    0.6752  -16.7190   19.5581 H   0  0  0  0  0  0  0  0  0  0  0  0
    2.0437  -14.7581   17.7841 H   0  0  0  0  0  0  0  0  0  0  0  0
    3.6449  -12.7753   17.8847 H   0  0  0  0  0  0  0  0  0  0  0  0
    5.3973  -12.3100   19.4039 H   0  0  0  0  0  0  0  0  0  0  0  0
    3.0101  -14.2090   22.1233 H   0  0  0  0  0  0  0  0  0  0  0  0
   -0.2665  -16.8810   21.8078 H   0  0  0  0  0  0  0  0  0  0  0  0
    0.5398  -18.2029   21.0589 H   0  0  0  0  0  0  0  0  0  0  0  0
  1  2  2  0
  2  3  1  0
  3  4  2  0
  4  5  1  0
  5  6  2  0
  6  7  1  0
  7  8  2  0
  8  9  1  0
  9 10  1  0
 10 11  2  0
  2 12  1  0
 12 13  1  0
 13 14  1  0
 14 15  1  0
 15 16  1  0
 16 17  1  0
 17 18  2  0
 18 19  1  0
 19 20  2  0
 20 21  1  0
 21 22  2  0
 16 23  1  0
 11  3  1  0
 23 12  1  0
 10  6  1  0
 22 17  1  0
  4 24  1  0
  5 25  1  0
  8 26  1  0
 11 27  1  0
 13 28  1  0
 13 29  1  0
 14 30  1  0
 14 31  1  0
 15 32  1  0
 16 33  1  0
 18 34  1  0
 19 35  1  0
 20 36  1  0
 22 37  1  0
 23 38  1  0
 23 39  1  0
M  END
>  <Energy>  (612) 
1316.6015231823951

>  <compound_id>  (612) 
6701

>  <target_id>  (612) 
1

>  <reference_id>  (612) 
60

>  <inspiration_ids>  (612) 
[68, 60]

>  <energy_score>  (612) 
1123.9242590514687

>  <distance_score>  (612) 
15.073774988728552

>  <path>  (612) 
/opt/xchem-fragalysis-2/maxwin/BulkDock/SCRATCH/511020/C6701-P60/C6701-P60.minimised.mol

>  <scratch_subdir>  (612) 
/opt/xchem-fragalysis-2/maxwin/BulkDock/SCRATCH/511020/C6701-P60

>  <fragmenstein_runtime>  (612) 
14.369141578674316

>  <fragmenstein_outcome>  (612) 
too moved

>  <fragmenstein_mode>  (612) 
expansion

>  <fragmenstein_error>  (612) 


$$$$
C6747-P68
     RDKit          3D

 37 40  0  0  0  0  0  0  0  0999 V2000
   -0.4260  -29.1555   21.6419 C   0  0  0  0  0  0  0  0  0  0  0  0
   -1.6506  -29.1260   20.9907 C   0  0  0  0  0  0  0  0  0  0  0  0
   -1.9298  -28.1156   20.0679 C   0  0  0  0  0  0  0  0  0  0  0  0
   -0.9231  -27.1621   19.7815 C   0  0  0  0  0  0  0  0  0  0  0  0
   -0.9621  -25.8516   18.6869 S   0  0  0  0  0  0  0  0  0  0  0  0
    0.7377  -25.3593   19.0151 C   0  0  0  0  0  0  0  0  0  0  0  0
    1.3751  -24.3340   18.2174 N   0  0  0  0  0  0  0  0  0  0  0  0
    1.1967  -22.9336   18.6982 C   0  0  0  0  0  0  0  0  0  0  0  0
    1.7303  -21.7907   17.7507 C   0  0  0  0  0  0  0  0  0  0  0  0
    3.0907  -21.9389   17.1647 N   0  0  0  0  0  0  0  0  0  0  0  0
    3.6828  -20.8165   16.4812 C   0  0  0  0  0  0  0  0  0  0  0  0
    4.9517  -20.8454   15.8722 C   0  0  0  0  0  0  0  0  0  0  0  0
    5.5798  -19.6663   15.3915 C   0  0  0  0  0  0  0  0  0  0  0  0
    5.0587  -18.4258   15.4539 N   0  0  0  0  0  0  0  0  0  0  0  0
    3.8026  -18.4025   15.9416 C   0  0  0  0  0  0  0  0  0  0  0  0
    3.1175  -19.5286   16.4532 C   0  0  0  0  0  0  0  0  0  0  0  0
    3.2908  -23.3332   16.6927 C   0  0  0  0  0  0  0  0  0  0  0  0
    2.7791  -24.4845   17.6791 C   0  0  0  0  0  0  0  0  0  0  0  0
    1.2628  -26.2103   19.8956 N   0  0  0  0  0  0  0  0  0  0  0  0
    0.3298  -27.1829   20.3798 C   0  0  0  0  0  0  0  0  0  0  0  0
    0.5609  -28.1964   21.3461 C   0  0  0  0  0  0  0  0  0  0  0  0
   -0.2108  -29.9441   22.3588 H   0  0  0  0  0  0  0  0  0  0  0  0
   -2.3752  -29.9097   21.1825 H   0  0  0  0  0  0  0  0  0  0  0  0
   -2.8841  -28.0820   19.5522 H   0  0  0  0  0  0  0  0  0  0  0  0
    0.1259  -22.7584   18.8155 H   0  0  0  0  0  0  0  0  0  0  0  0
    1.6191  -22.7918   19.6925 H   0  0  0  0  0  0  0  0  0  0  0  0
    1.6687  -20.8630   18.3293 H   0  0  0  0  0  0  0  0  0  0  0  0
    1.0348  -21.7280   16.9190 H   0  0  0  0  0  0  0  0  0  0  0  0
    5.5006  -21.7768   15.7989 H   0  0  0  0  0  0  0  0  0  0  0  0
    6.5650  -19.7275   14.9376 H   0  0  0  0  0  0  0  0  0  0  0  0
    3.3117  -17.4354   15.9307 H   0  0  0  0  0  0  0  0  0  0  0  0
    2.1177  -19.3756   16.8277 H   0  0  0  0  0  0  0  0  0  0  0  0
    4.3543  -23.5248   16.5148 H   0  0  0  0  0  0  0  0  0  0  0  0
    2.7720  -23.4494   15.7337 H   0  0  0  0  0  0  0  0  0  0  0  0
    2.8670  -25.3949   17.0898 H   0  0  0  0  0  0  0  0  0  0  0  0
    3.5234  -24.6354   18.4508 H   0  0  0  0  0  0  0  0  0  0  0  0
    1.5306  -28.2428   21.8320 H   0  0  0  0  0  0  0  0  0  0  0  0
  1  2  2  0
  2  3  1  0
  3  4  2  0
  4  5  1  0
  5  6  1  0
  6  7  1  0
  7  8  1  0
  8  9  1  0
  9 10  1  0
 10 11  1  0
 11 12  2  0
 12 13  1  0
 13 14  2  0
 14 15  1  0
 15 16  2  0
 10 17  1  0
 17 18  1  0
  6 19  2  0
 19 20  1  0
 20 21  2  0
 21  1  1  0
 20  4  1  0
 18  7  1  0
 16 11  1  0
  1 22  1  0
  2 23  1  0
  3 24  1  0
  8 25  1  0
  8 26  1  0
  9 27  1  0
  9 28  1  0
 12 29  1  0
 13 30  1  0
 15 31  1  0
 16 32  1  0
 17 33  1  0
 17 34  1  0
 18 35  1  0
 18 36  1  0
 21 37  1  0
M  END
>  <Energy>  (613) 
111.43095222492565

>  <compound_id>  (613) 
6747

>  <target_id>  (613) 
1

>  <reference_id>  (613) 
68

>  <inspiration_ids>  (613) 
[68, 60]

>  <energy_score>  (613) 
-42.17050934701274

>  <distance_score>  (613) 
15.655362150777714

>  <path>  (613) 
/opt/xchem-fragalysis-2/maxwin/BulkDock/SCRATCH/511020/C6747-P68/C6747-P68.minimised.mol

>  <scratch_subdir>  (613) 
/opt/xchem-fragalysis-2/maxwin/BulkDock/SCRATCH/511020/C6747-P68

>  <fragmenstein_runtime>  (613) 
13.809450387954712

>  <fragmenstein_outcome>  (613) 
too moved

>  <fragmenstein_mode>  (613) 
expansion

>  <fragmenstein_error>  (613) 


$$$$
C6747-P60
     RDKit          3D

 37 40  0  0  0  0  0  0  0  0999 V2000
    0.8415  -25.4743   16.8243 C   0  0  0  0  0  0  0  0  0  0  0  0
    1.9613  -26.2788   16.6942 C   0  0  0  0  0  0  0  0  0  0  0  0
    3.2430  -25.7041   16.5864 C   0  0  0  0  0  0  0  0  0  0  0  0
    3.3874  -24.2933   16.6661 C   0  0  0  0  0  0  0  0  0  0  0  0
    4.8327  -23.2659   16.7988 S   0  0  0  0  0  0  0  0  0  0  0  0
    3.8336  -21.9682   17.5583 C   0  0  0  0  0  0  0  0  0  0  0  0
    4.0870  -21.3427   18.9162 N   0  0  0  0  0  0  0  0  0  0  0  0
    2.8706  -20.5330   19.5199 C   0  0  0  0  0  0  0  0  0  0  0  0
    3.4372  -19.1952   20.8555 C   0  0  0  0  0  0  0  0  0  0  0  0
    5.1173  -18.1036   20.5315 N   0  0  0  0  0  0  0  0  0  0  0  0
    5.4387  -16.7744   19.3146 C   0  0  0  0  0  0  0  0  0  0  0  0
    6.2440  -15.8734   19.7464 C   0  0  0  0  0  0  0  0  0  0  0  0
    6.1255  -13.9515   19.4696 C   0  0  0  0  0  0  0  0  0  0  0  0
    5.3649  -13.1408   18.7730 N   0  0  0  0  0  0  0  0  0  0  0  0
    4.5018  -14.0126   18.3148 C   0  0  0  0  0  0  0  0  0  0  0  0
    4.5028  -15.5827   18.4588 C   0  0  0  0  0  0  0  0  0  0  0  0
    6.3044  -19.2471   20.1245 C   0  0  0  0  0  0  0  0  0  0  0  0
    5.5614  -21.0973   19.8944 C   0  0  0  0  0  0  0  0  0  0  0  0
    2.6147  -22.0675   16.9710 N   0  0  0  0  0  0  0  0  0  0  0  0
    2.2796  -23.4508   16.7477 C   0  0  0  0  0  0  0  0  0  0  0  0
    0.9947  -24.0776   16.8181 C   0  0  0  0  0  0  0  0  0  0  0  0
   -0.1446  -25.9151   16.9337 H   0  0  0  0  0  0  0  0  0  0  0  0
    1.8576  -27.3611   16.6889 H   0  0  0  0  0  0  0  0  0  0  0  0
    4.1232  -26.3364   16.5240 H   0  0  0  0  0  0  0  0  0  0  0  0
    2.3910  -20.0234   18.6714 H   0  0  0  0  0  0  0  0  0  0  0  0
    2.1025  -21.1795   19.8891 H   0  0  0  0  0  0  0  0  0  0  0  0
    3.6202  -19.3751   21.9656 H   0  0  0  0  0  0  0  0  0  0  0  0
    2.4106  -18.9247   21.1124 H   0  0  0  0  0  0  0  0  0  0  0  0
    7.2047  -16.3086   19.9483 H   0  0  0  0  0  0  0  0  0  0  0  0
    7.0734  -13.4130   19.7176 H   0  0  0  0  0  0  0  0  0  0  0  0
    3.5309  -13.5894   18.1437 H   0  0  0  0  0  0  0  0  0  0  0  0
    3.4201  -15.6934   18.2865 H   0  0  0  0  0  0  0  0  0  0  0  0
    6.9420  -18.9406   19.2656 H   0  0  0  0  0  0  0  0  0  0  0  0
    7.0381  -18.9835   20.8676 H   0  0  0  0  0  0  0  0  0  0  0  0
    6.3656  -21.6906   19.3867 H   0  0  0  0  0  0  0  0  0  0  0  0
    5.2849  -21.6725   20.7097 H   0  0  0  0  0  0  0  0  0  0  0  0
    0.1274  -23.4510   16.9525 H   0  0  0  0  0  0  0  0  0  0  0  0
  1  2  2  0
  2  3  1  0
  3  4  2  0
  4  5  1  0
  5  6  1  0
  6  7  1  0
  7  8  1  0
  8  9  1  0
  9 10  1  0
 10 11  1  0
 11 12  2  0
 12 13  1  0
 13 14  2  0
 14 15  1  0
 15 16  2  0
 10 17  1  0
 17 18  1  0
  6 19  2  0
 19 20  1  0
 20 21  2  0
 21  1  1  0
 20  4  1  0
 18  7  1  0
 16 11  1  0
  1 22  1  0
  2 23  1  0
  3 24  1  0
  8 25  1  0
  8 26  1  0
  9 27  1  0
  9 28  1  0
 12 29  1  0
 13 30  1  0
 15 31  1  0
 16 32  1  0
 17 33  1  0
 17 34  1  0
 18 35  1  0
 18 36  1  0
 21 37  1  0
M  END
>  <Energy>  (614) 
643.39442431311556

>  <compound_id>  (614) 
6747

>  <target_id>  (614) 
1

>  <reference_id>  (614) 
60

>  <inspiration_ids>  (614) 
[68, 60]

>  <energy_score>  (614) 
489.7929627411781

>  <distance_score>  (614) 
16.768198597635962

>  <path>  (614) 
/opt/xchem-fragalysis-2/maxwin/BulkDock/SCRATCH/511020/C6747-P60/C6747-P60.minimised.mol

>  <scratch_subdir>  (614) 
/opt/xchem-fragalysis-2/maxwin/BulkDock/SCRATCH/511020/C6747-P60

>  <fragmenstein_runtime>  (614) 
8.043941974639893

>  <fragmenstein_outcome>  (614) 
too moved

>  <fragmenstein_mode>  (614) 
expansion

>  <fragmenstein_error>  (614) 


$$$$
C19714-P28
     RDKit          3D

 47 48  0  0  0  0  0  0  0  0999 V2000
    0.3294  -15.3872   21.3908 C   0  0  0  0  0  0  0  0  0  0  0  0
    0.3330  -16.3214   20.2272 N   0  0  0  0  0  0  0  0  0  0  0  0
    1.7986  -15.7945   20.0997 C   0  0  0  0  0  0  0  0  0  0  0  0
    1.9189  -14.5585   19.1555 C   0  0  0  0  0  0  0  0  0  0  0  0
    2.9741  -13.5934   19.4459 N   0  0  0  0  0  0  0  0  0  0  0  0
    2.9217  -12.2929   20.0717 C   0  0  0  0  0  0  0  0  0  0  0  0
    2.0086  -11.7078   20.5848 O   0  0  0  0  0  0  0  0  0  0  0  0
    4.2838  -11.5485   19.9812 C   0  0  0  0  0  0  0  0  0  0  0  0
    4.1888  -10.2879   19.0921 C   0  0  0  0  0  0  0  0  0  0  0  0
    5.3722   -9.3331   19.0977 C   0  0  0  0  0  0  0  0  0  0  0  0
    5.5703   -8.2046   18.2468 C   0  0  0  0  0  0  0  0  0  0  0  0
    6.6686   -7.5031   18.5455 N   0  0  0  0  0  0  0  0  0  0  0  0
    7.1846   -8.1642   19.5908 N   0  0  0  0  0  0  0  0  0  0  0  0
    6.4679   -9.2754   19.9348 C   0  0  0  0  0  0  0  0  0  0  0  0
    0.3139  -17.7655   20.1794 C   0  0  0  0  0  0  0  0  0  0  0  0
    0.3809  -18.5757   21.0635 O   0  0  0  0  0  0  0  0  0  0  0  0
    0.0686  -18.2016   18.7211 C   0  0  0  0  0  0  0  0  0  0  0  0
   -0.2268  -19.6973   18.4802 C   0  0  0  0  0  0  0  0  0  0  0  0
    0.9616  -20.4596   18.7598 O   0  0  0  0  0  0  0  0  0  0  0  0
   -0.6381  -20.0303   17.0462 C   0  0  0  0  0  0  0  0  0  0  0  0
   -1.2554  -21.4024   17.2343 C   0  0  0  0  0  0  0  0  0  0  0  0
   -2.0409  -21.2875   18.4245 O   0  0  0  0  0  0  0  0  0  0  0  0
   -1.4191  -20.2715   19.2603 C   0  0  0  0  0  0  0  0  0  0  0  0
    0.8874  -15.7712   22.2578 H   0  0  0  0  0  0  0  0  0  0  0  0
    0.4807  -14.3214   21.1834 H   0  0  0  0  0  0  0  0  0  0  0  0
   -0.7121  -15.4361   21.7408 H   0  0  0  0  0  0  0  0  0  0  0  0
    2.4024  -15.7194   21.0213 H   0  0  0  0  0  0  0  0  0  0  0  0
    2.3363  -16.5964   19.5691 H   0  0  0  0  0  0  0  0  0  0  0  0
    2.0905  -14.9085   18.1317 H   0  0  0  0  0  0  0  0  0  0  0  0
    0.9761  -14.0041   19.1453 H   0  0  0  0  0  0  0  0  0  0  0  0
    3.8930  -13.7304   19.0461 H   0  0  0  0  0  0  0  0  0  0  0  0
    5.0835  -12.2071   19.6314 H   0  0  0  0  0  0  0  0  0  0  0  0
    4.5489  -11.2682   21.0085 H   0  0  0  0  0  0  0  0  0  0  0  0
    3.3057   -9.7065   19.3883 H   0  0  0  0  0  0  0  0  0  0  0  0
    4.0076  -10.6054   18.0576 H   0  0  0  0  0  0  0  0  0  0  0  0
    4.9381   -7.8649   17.4348 H   0  0  0  0  0  0  0  0  0  0  0  0
    8.0313   -7.8106   20.0254 H   0  0  0  0  0  0  0  0  0  0  0  0
    6.7777   -9.8925   20.7664 H   0  0  0  0  0  0  0  0  0  0  0  0
    0.9728  -17.9302   18.1662 H   0  0  0  0  0  0  0  0  0  0  0  0
   -0.7728  -17.6077   18.3459 H   0  0  0  0  0  0  0  0  0  0  0  0
    1.6687  -20.1659   18.1621 H   0  0  0  0  0  0  0  0  0  0  0  0
   -1.3911  -19.3200   16.6874 H   0  0  0  0  0  0  0  0  0  0  0  0
    0.1971  -20.0594   16.3405 H   0  0  0  0  0  0  0  0  0  0  0  0
   -0.4915  -22.1706   17.4016 H   0  0  0  0  0  0  0  0  0  0  0  0
   -1.8655  -21.7288   16.3911 H   0  0  0  0  0  0  0  0  0  0  0  0
   -1.1222  -20.7467   20.1998 H   0  0  0  0  0  0  0  0  0  0  0  0
   -2.1871  -19.5168   19.4570 H   0  0  0  0  0  0  0  0  0  0  0  0
  1  2  1  0
  2  3  1  0
  3  4  1  0
  4  5  1  0
  5  6  1  0
  6  7  2  0
  6  8  1  0
  8  9  1  0
  9 10  1  0
 10 11  1  0
 11 12  2  0
 12 13  1  0
 13 14  1  0
  2 15  1  0
 15 16  2  0
 15 17  1  0
 17 18  1  0
 18 19  1  0
 18 20  1  0
 20 21  1  0
 21 22  1  0
 22 23  1  0
 14 10  2  0
 23 18  1  0
  1 24  1  0
  1 25  1  0
  1 26  1  0
  3 27  1  0
  3 28  1  0
  4 29  1  0
  4 30  1  0
  5 31  1  0
  8 32  1  0
  8 33  1  0
  9 34  1  0
  9 35  1  0
 11 36  1  0
 13 37  1  0
 14 38  1  0
 17 39  1  0
 17 40  1  0
 19 41  1  0
 20 42  1  0
 20 43  1  0
 21 44  1  0
 21 45  1  0
 23 46  1  0
 23 47  1  0
M  END
>  <Energy>  (615) 
104.25089915029179

>  <compound_id>  (615) 
19714

>  <target_id>  (615) 
1

>  <reference_id>  (615) 
28

>  <inspiration_ids>  (615) 
[28, 81]

>  <energy_score>  (615) 
55.58613007993242

>  <distance_score>  (615) 
15.743417333787965

>  <path>  (615) 
/opt/xchem-fragalysis-2/maxwin/BulkDock/SCRATCH/511020/C19714-P28/C19714-P28.minimised.mol

>  <scratch_subdir>  (615) 
/opt/xchem-fragalysis-2/maxwin/BulkDock/SCRATCH/511020/C19714-P28

>  <fragmenstein_runtime>  (615) 
51.78162217140198

>  <fragmenstein_outcome>  (615) 
too moved

>  <fragmenstein_mode>  (615) 
expansion

>  <fragmenstein_error>  (615) 


$$$$
C19714-P81
     RDKit          3D

 47 48  0  0  0  0  0  0  0  0999 V2000
   -9.7609  -22.0718    9.9886 C   0  0  0  0  0  0  0  0  0  0  0  0
   -9.6674  -22.9087   11.1520 N   0  0  0  0  0  0  0  0  0  0  0  0
   -9.1215  -21.5318   11.8217 C   0  0  0  0  0  0  0  0  0  0  0  0
   -8.5038  -19.9911   11.4084 C   0  0  0  0  0  0  0  0  0  0  0  0
   -7.0977  -19.1452   11.9709 N   0  0  0  0  0  0  0  0  0  0  0  0
   -6.9311  -17.5366   12.6166 C   0  0  0  0  0  0  0  0  0  0  0  0
   -7.8109  -16.7227   12.8713 O   0  0  0  0  0  0  0  0  0  0  0  0
   -5.4978  -16.9330   13.0125 C   0  0  0  0  0  0  0  0  0  0  0  0
   -5.5060  -15.6446   13.9748 C   0  0  0  0  0  0  0  0  0  0  0  0
   -4.5657  -15.4832   15.2002 C   0  0  0  0  0  0  0  0  0  0  0  0
   -4.8211  -14.7196   16.3849 C   0  0  0  0  0  0  0  0  0  0  0  0
   -3.7721  -14.6013   17.2101 N   0  0  0  0  0  0  0  0  0  0  0  0
   -2.8785  -15.4216   16.6553 N   0  0  0  0  0  0  0  0  0  0  0  0
   -3.3766  -16.0702   15.5599 C   0  0  0  0  0  0  0  0  0  0  0  0
  -10.6932  -23.4801   11.9735 C   0  0  0  0  0  0  0  0  0  0  0  0
  -11.8885  -23.3297   11.9523 O   0  0  0  0  0  0  0  0  0  0  0  0
  -10.1821  -24.5029   12.9465 C   0  0  0  0  0  0  0  0  0  0  0  0
   -9.7495  -25.8154   12.2850 C   0  0  0  0  0  0  0  0  0  0  0  0
   -8.5306  -25.6547   11.5650 O   0  0  0  0  0  0  0  0  0  0  0  0
   -9.5902  -26.8993   13.3435 C   0  0  0  0  0  0  0  0  0  0  0  0
  -11.0050  -27.3986   13.5433 C   0  0  0  0  0  0  0  0  0  0  0  0
  -11.7092  -27.1747   12.3164 O   0  0  0  0  0  0  0  0  0  0  0  0
  -10.8508  -26.4450   11.4264 C   0  0  0  0  0  0  0  0  0  0  0  0
   -9.0688  -21.3511    9.6201 H   0  0  0  0  0  0  0  0  0  0  0  0
   -9.7073  -22.8275    9.1863 H   0  0  0  0  0  0  0  0  0  0  0  0
  -10.7917  -21.7793    9.8475 H   0  0  0  0  0  0  0  0  0  0  0  0
   -9.9935  -21.2728   12.4455 H   0  0  0  0  0  0  0  0  0  0  0  0
   -8.3665  -21.9469   12.5025 H   0  0  0  0  0  0  0  0  0  0  0  0
   -8.5242  -19.8357   10.3510 H   0  0  0  0  0  0  0  0  0  0  0  0
   -9.3280  -19.3550   11.7593 H   0  0  0  0  0  0  0  0  0  0  0  0
   -6.1891  -19.6040   11.9489 H   0  0  0  0  0  0  0  0  0  0  0  0
   -5.1069  -16.5089   12.0863 H   0  0  0  0  0  0  0  0  0  0  0  0
   -4.8553  -17.7159   13.3661 H   0  0  0  0  0  0  0  0  0  0  0  0
   -6.5213  -15.4532   14.3407 H   0  0  0  0  0  0  0  0  0  0  0  0
   -5.2750  -14.7803   13.3382 H   0  0  0  0  0  0  0  0  0  0  0  0
   -5.7320  -14.1866   16.6323 H   0  0  0  0  0  0  0  0  0  0  0  0
   -1.9958  -15.5675   17.1316 H   0  0  0  0  0  0  0  0  0  0  0  0
   -2.8604  -16.9128   15.1453 H   0  0  0  0  0  0  0  0  0  0  0  0
   -9.4251  -24.0270   13.5509 H   0  0  0  0  0  0  0  0  0  0  0  0
  -11.0026  -24.6961   13.6485 H   0  0  0  0  0  0  0  0  0  0  0  0
   -8.2882  -26.5113   11.1735 H   0  0  0  0  0  0  0  0  0  0  0  0
   -9.1434  -26.5609   14.2821 H   0  0  0  0  0  0  0  0  0  0  0  0
   -8.9564  -27.7125   12.9676 H   0  0  0  0  0  0  0  0  0  0  0  0
  -11.5223  -26.8506   14.3375 H   0  0  0  0  0  0  0  0  0  0  0  0
  -11.0344  -28.4638   13.7911 H   0  0  0  0  0  0  0  0  0  0  0  0
  -10.4325  -27.1595   10.7071 H   0  0  0  0  0  0  0  0  0  0  0  0
  -11.4443  -25.7307   10.8505 H   0  0  0  0  0  0  0  0  0  0  0  0
  1  2  1  0
  2  3  1  0
  3  4  1  0
  4  5  1  0
  5  6  1  0
  6  7  2  0
  6  8  1  0
  8  9  1  0
  9 10  1  0
 10 11  1  0
 11 12  2  0
 12 13  1  0
 13 14  1  0
  2 15  1  0
 15 16  2  0
 15 17  1  0
 17 18  1  0
 18 19  1  0
 18 20  1  0
 20 21  1  0
 21 22  1  0
 22 23  1  0
 14 10  2  0
 23 18  1  0
  1 24  1  0
  1 25  1  0
  1 26  1  0
  3 27  1  0
  3 28  1  0
  4 29  1  0
  4 30  1  0
  5 31  1  0
  8 32  1  0
  8 33  1  0
  9 34  1  0
  9 35  1  0
 11 36  1  0
 13 37  1  0
 14 38  1  0
 17 39  1  0
 17 40  1  0
 19 41  1  0
 20 42  1  0
 20 43  1  0
 21 44  1  0
 21 45  1  0
 23 46  1  0
 23 47  1  0
M  END
>  <Energy>  (616) 
235.7378489891731

>  <compound_id>  (616) 
19714

>  <target_id>  (616) 
1

>  <reference_id>  (616) 
81

>  <inspiration_ids>  (616) 
[28, 81]

>  <energy_score>  (616) 
187.07307991881387

>  <distance_score>  (616) 
12.999647268132867

>  <path>  (616) 
/opt/xchem-fragalysis-2/maxwin/BulkDock/SCRATCH/511020/C19714-P81/C19714-P81.minimised.mol

>  <scratch_subdir>  (616) 
/opt/xchem-fragalysis-2/maxwin/BulkDock/SCRATCH/511020/C19714-P81

>  <fragmenstein_runtime>  (616) 
24.20803165435791

>  <fragmenstein_outcome>  (616) 
too moved

>  <fragmenstein_mode>  (616) 
expansion

>  <fragmenstein_error>  (616) 


$$$$
C84689-P112
     RDKit          3D

 38 38  0  0  0  0  0  0  0  0999 V2000
   -3.5167  -13.5651   12.1199 C   0  0  0  0  0  0  0  0  0  0  0  0
   -2.5766  -12.8825   11.7913 C   0  0  0  0  0  0  0  0  0  0  0  0
   -1.3336  -12.1512   11.3414 C   0  0  0  0  0  0  0  0  0  0  0  0
   -1.3148  -10.5644   11.4401 C   0  0  0  0  0  0  0  0  0  0  0  0
    0.0709   -9.8014   10.9270 C   0  0  0  0  0  0  0  0  0  0  0  0
    0.2945   -8.1055   11.1979 C   0  0  0  0  0  0  0  0  0  0  0  0
    1.7251   -6.8604   11.3329 C   0  0  0  0  0  0  0  0  0  0  0  0
    3.5119   -6.5033   12.1266 C   0  0  0  0  0  0  0  0  0  0  0  0
    3.3497   -4.9207   12.1151 N   0  0  0  0  0  0  0  0  0  0  0  0
    4.1593   -7.2424   13.8694 C   0  0  0  0  0  0  0  0  0  0  0  0
    3.4774   -6.3491   15.3908 C   0  0  0  0  0  0  0  0  0  0  0  0
    4.1237   -5.7472   16.6839 C   0  0  0  0  0  0  0  0  0  0  0  0
    5.5390   -6.1836   16.9703 C   0  0  0  0  0  0  0  0  0  0  0  0
    6.3602   -6.3991   15.6557 C   0  0  0  0  0  0  0  0  0  0  0  0
    5.8544   -7.1433   14.1604 O   0  0  0  0  0  0  0  0  0  0  0  0
   -4.3415  -14.1741   12.4102 H   0  0  0  0  0  0  0  0  0  0  0  0
   -1.1375  -12.4201   10.2963 H   0  0  0  0  0  0  0  0  0  0  0  0
   -0.4859  -12.5289   11.9265 H   0  0  0  0  0  0  0  0  0  0  0  0
   -2.1435  -10.1602   10.8464 H   0  0  0  0  0  0  0  0  0  0  0  0
   -1.4979  -10.2709   12.4789 H   0  0  0  0  0  0  0  0  0  0  0  0
    0.0775   -9.9289    9.8392 H   0  0  0  0  0  0  0  0  0  0  0  0
    0.9275  -10.3589   11.3091 H   0  0  0  0  0  0  0  0  0  0  0  0
   -0.3619   -7.8688   12.0471 H   0  0  0  0  0  0  0  0  0  0  0  0
   -0.2415   -7.6687   10.3402 H   0  0  0  0  0  0  0  0  0  0  0  0
    1.6561   -6.3852   10.3565 H   0  0  0  0  0  0  0  0  0  0  0  0
    1.1512   -6.0167   11.7672 H   0  0  0  0  0  0  0  0  0  0  0  0
    4.3866   -6.4410   11.5309 H   0  0  0  0  0  0  0  0  0  0  0  0
    3.1752   -4.6279   11.1548 H   0  0  0  0  0  0  0  0  0  0  0  0
    2.5248   -4.6530   12.6465 H   0  0  0  0  0  0  0  0  0  0  0  0
    4.1240   -8.3165   13.7944 H   0  0  0  0  0  0  0  0  0  0  0  0
    2.8180   -5.5375   15.0485 H   0  0  0  0  0  0  0  0  0  0  0  0
    2.9271   -7.1390   15.9185 H   0  0  0  0  0  0  0  0  0  0  0  0
    3.4921   -6.0018   17.5481 H   0  0  0  0  0  0  0  0  0  0  0  0
    4.0410   -4.6529   16.6521 H   0  0  0  0  0  0  0  0  0  0  0  0
    6.0427   -5.4766   17.6225 H   0  0  0  0  0  0  0  0  0  0  0  0
    5.4989   -6.9799   17.6979 H   0  0  0  0  0  0  0  0  0  0  0  0
    7.4038   -6.4541   15.5062 H   0  0  0  0  0  0  0  0  0  0  0  0
    6.5582   -5.3690   15.6078 H   0  0  0  0  0  0  0  0  0  0  0  0
  1  2  3  0
  2  3  1  0
  3  4  1  0
  4  5  1  0
  5  6  1  0
  6  7  1  0
  7  8  1  0
  8  9  1  0
  8 10  1  0
 10 11  1  0
 11 12  1  0
 12 13  1  0
 13 14  1  0
 14 15  1  0
 15 10  1  0
  1 16  1  0
  3 17  1  0
  3 18  1  0
  4 19  1  0
  4 20  1  0
  5 21  1  0
  5 22  1  0
  6 23  1  0
  6 24  1  0
  7 25  1  0
  7 26  1  0
  8 27  1  0
  9 28  1  0
  9 29  1  0
 10 30  1  0
 11 31  1  0
 11 32  1  0
 12 33  1  0
 12 34  1  0
 13 35  1  0
 13 36  1  0
 14 37  1  0
 14 38  1  0
M  END
>  <Energy>  (617) 
390.12773081622294

>  <compound_id>  (617) 
84689

>  <target_id>  (617) 
1

>  <reference_id>  (617) 
112

>  <inspiration_ids>  (617) 
[112, 93]

>  <energy_score>  (617) 
293.85209476047913

>  <distance_score>  (617) 
13.737832304295207

>  <path>  (617) 
/opt/xchem-fragalysis-2/maxwin/BulkDock/SCRATCH/511020/C84689-P112/C84689-P112.minimised.mol

>  <scratch_subdir>  (617) 
/opt/xchem-fragalysis-2/maxwin/BulkDock/SCRATCH/511020/C84689-P112

>  <fragmenstein_runtime>  (617) 
9.056607723236084

>  <fragmenstein_outcome>  (617) 
too moved

>  <fragmenstein_mode>  (617) 
expansion

>  <fragmenstein_error>  (617) 


$$$$
C84689-P93
     RDKit          3D

 38 38  0  0  0  0  0  0  0  0999 V2000
   -4.7966  -24.8047   11.2155 C   0  0  0  0  0  0  0  0  0  0  0  0
   -4.1022  -23.8972   10.8353 C   0  0  0  0  0  0  0  0  0  0  0  0
   -3.2690  -22.8060   10.2600 C   0  0  0  0  0  0  0  0  0  0  0  0
   -2.7726  -21.6752   11.2038 C   0  0  0  0  0  0  0  0  0  0  0  0
   -1.8393  -20.6717   10.4458 C   0  0  0  0  0  0  0  0  0  0  0  0
   -1.0918  -19.5663   11.2882 C   0  0  0  0  0  0  0  0  0  0  0  0
    0.0690  -18.8298   10.4725 C   0  0  0  0  0  0  0  0  0  0  0  0
    1.0971  -17.8249   11.2341 C   0  0  0  0  0  0  0  0  0  0  0  0
    0.5553  -16.4455   11.2709 N   0  0  0  0  0  0  0  0  0  0  0  0
    2.5695  -17.9630   10.6332 C   0  0  0  0  0  0  0  0  0  0  0  0
    2.9769  -17.0672    9.4499 C   0  0  0  0  0  0  0  0  0  0  0  0
    4.5038  -17.0390    9.2439 C   0  0  0  0  0  0  0  0  0  0  0  0
    5.2062  -18.2718    9.8024 C   0  0  0  0  0  0  0  0  0  0  0  0
    4.7314  -18.6795   11.1989 C   0  0  0  0  0  0  0  0  0  0  0  0
    3.6166  -17.8943   11.6332 O   0  0  0  0  0  0  0  0  0  0  0  0
   -5.3920  -25.6181   11.5567 H   0  0  0  0  0  0  0  0  0  0  0  0
   -3.8060  -22.3511    9.4202 H   0  0  0  0  0  0  0  0  0  0  0  0
   -2.3840  -23.2812    9.8160 H   0  0  0  0  0  0  0  0  0  0  0  0
   -2.2182  -22.1168   12.0400 H   0  0  0  0  0  0  0  0  0  0  0  0
   -3.6082  -21.1105   11.6232 H   0  0  0  0  0  0  0  0  0  0  0  0
   -2.4217  -20.1688    9.6639 H   0  0  0  0  0  0  0  0  0  0  0  0
   -1.0709  -21.2620    9.9304 H   0  0  0  0  0  0  0  0  0  0  0  0
   -1.8127  -18.8230   11.6444 H   0  0  0  0  0  0  0  0  0  0  0  0
   -0.6380  -20.0423   12.1647 H   0  0  0  0  0  0  0  0  0  0  0  0
   -0.3888  -18.2896    9.6334 H   0  0  0  0  0  0  0  0  0  0  0  0
    0.6598  -19.6344   10.0186 H   0  0  0  0  0  0  0  0  0  0  0  0
    1.1432  -18.1839   12.2705 H   0  0  0  0  0  0  0  0  0  0  0  0
    0.7942  -16.0450   12.1847 H   0  0  0  0  0  0  0  0  0  0  0  0
   -0.4636  -16.4995   11.3145 H   0  0  0  0  0  0  0  0  0  0  0  0
    2.5999  -18.9934   10.2523 H   0  0  0  0  0  0  0  0  0  0  0  0
    2.6098  -16.0441    9.5483 H   0  0  0  0  0  0  0  0  0  0  0  0
    2.4934  -17.4571    8.5449 H   0  0  0  0  0  0  0  0  0  0  0  0
    4.7131  -16.9669    8.1710 H   0  0  0  0  0  0  0  0  0  0  0  0
    4.9386  -16.1508    9.7042 H   0  0  0  0  0  0  0  0  0  0  0  0
    5.0020  -19.1125    9.1250 H   0  0  0  0  0  0  0  0  0  0  0  0
    6.2942  -18.1582    9.7739 H   0  0  0  0  0  0  0  0  0  0  0  0
    5.5267  -18.6338   11.9447 H   0  0  0  0  0  0  0  0  0  0  0  0
    4.4342  -19.7371   11.1946 H   0  0  0  0  0  0  0  0  0  0  0  0
  1  2  3  0
  2  3  1  0
  3  4  1  0
  4  5  1  0
  5  6  1  0
  6  7  1  0
  7  8  1  0
  8  9  1  0
  8 10  1  0
 10 11  1  0
 11 12  1  0
 12 13  1  0
 13 14  1  0
 14 15  1  0
 15 10  1  0
  1 16  1  0
  3 17  1  0
  3 18  1  0
  4 19  1  0
  4 20  1  0
  5 21  1  0
  5 22  1  0
  6 23  1  0
  6 24  1  0
  7 25  1  0
  7 26  1  0
  8 27  1  0
  9 28  1  0
  9 29  1  0
 10 30  1  0
 11 31  1  0
 11 32  1  0
 12 33  1  0
 12 34  1  0
 13 35  1  0
 13 36  1  0
 14 37  1  0
 14 38  1  0
M  END
>  <Energy>  (618) 
61.627878123650007

>  <compound_id>  (618) 
84689

>  <target_id>  (618) 
1

>  <reference_id>  (618) 
93

>  <inspiration_ids>  (618) 
[112, 93]

>  <energy_score>  (618) 
-34.64775793208761

>  <distance_score>  (618) 
16.06545886550144

>  <path>  (618) 
/opt/xchem-fragalysis-2/maxwin/BulkDock/SCRATCH/511020/C84689-P93/C84689-P93.minimised.mol

>  <scratch_subdir>  (618) 
/opt/xchem-fragalysis-2/maxwin/BulkDock/SCRATCH/511020/C84689-P93

>  <fragmenstein_runtime>  (618) 
14.216990232467651

>  <fragmenstein_outcome>  (618) 
too moved

>  <fragmenstein_mode>  (618) 
expansion

>  <fragmenstein_error>  (618) 


$$$$
C84716-P112
     RDKit          3D

 42 42  0  0  0  0  0  0  0  0999 V2000
   -1.9271  -15.2643   12.4491 C   0  0  0  0  0  0  0  0  0  0  0  0
   -1.6719  -13.7876   12.1053 C   0  0  0  0  0  0  0  0  0  0  0  0
   -0.1673  -13.3183   12.2143 C   0  0  0  0  0  0  0  0  0  0  0  0
    0.0916  -11.7622   11.9327 C   0  0  0  0  0  0  0  0  0  0  0  0
    1.5550  -10.7202   11.4697 C   0  0  0  0  0  0  0  0  0  0  0  0
    3.2606   -9.9596   12.0083 C   0  0  0  0  0  0  0  0  0  0  0  0
    4.4402   -8.9646   13.4305 C   0  0  0  0  0  0  0  0  0  0  0  0
    6.0661   -7.6540   13.5559 C   0  0  0  0  0  0  0  0  0  0  0  0
    6.6307   -7.3071   14.8196 N   0  0  0  0  0  0  0  0  0  0  0  0
    7.7162   -7.5927   12.3112 C   0  0  0  0  0  0  0  0  0  0  0  0
    7.8438   -6.2617   12.3894 C   0  0  0  0  0  0  0  0  0  0  0  0
    8.6620   -5.0658   13.9342 C   0  0  0  0  0  0  0  0  0  0  0  0
   10.7009   -4.7222   13.2518 C   0  0  0  0  0  0  0  0  0  0  0  0
   11.0636   -6.1400   11.7804 O   0  0  0  0  0  0  0  0  0  0  0  0
    9.4574   -7.3558   11.1638 C   0  0  0  0  0  0  0  0  0  0  0  0
   -1.3671  -15.9165   11.7722 H   0  0  0  0  0  0  0  0  0  0  0  0
   -1.6138  -15.4787   13.4754 H   0  0  0  0  0  0  0  0  0  0  0  0
   -2.9920  -15.4968   12.3550 H   0  0  0  0  0  0  0  0  0  0  0  0
   -2.2708  -13.1677   12.7833 H   0  0  0  0  0  0  0  0  0  0  0  0
   -2.0418  -13.5882   11.0956 H   0  0  0  0  0  0  0  0  0  0  0  0
    0.4919  -13.9579   11.6410 H   0  0  0  0  0  0  0  0  0  0  0  0
    0.0774  -13.5245   13.2275 H   0  0  0  0  0  0  0  0  0  0  0  0
   -0.6041  -11.2322   12.5821 H   0  0  0  0  0  0  0  0  0  0  0  0
   -0.5029  -11.6541   11.0355 H   0  0  0  0  0  0  0  0  0  0  0  0
    1.1119   -9.9225   10.8705 H   0  0  0  0  0  0  0  0  0  0  0  0
    2.0577  -11.3884   10.7688 H   0  0  0  0  0  0  0  0  0  0  0  0
    3.0789  -10.4420   12.9701 H   0  0  0  0  0  0  0  0  0  0  0  0
    3.7402  -10.4416   11.1087 H   0  0  0  0  0  0  0  0  0  0  0  0
    3.8702   -8.2071   13.9409 H   0  0  0  0  0  0  0  0  0  0  0  0
    4.8157   -9.8560   13.9652 H   0  0  0  0  0  0  0  0  0  0  0  0
    5.4582   -6.9746   13.0621 H   0  0  0  0  0  0  0  0  0  0  0  0
    7.5792   -7.3643   14.5456 H   0  0  0  0  0  0  0  0  0  0  0  0
    6.4375   -6.4315   15.2874 H   0  0  0  0  0  0  0  0  0  0  0  0
    8.1824   -7.1538   13.1444 H   0  0  0  0  0  0  0  0  0  0  0  0
    6.8499   -6.5026   12.3572 H   0  0  0  0  0  0  0  0  0  0  0  0
    8.0536   -6.3283   11.3890 H   0  0  0  0  0  0  0  0  0  0  0  0
    8.6517   -4.1300   14.6410 H   0  0  0  0  0  0  0  0  0  0  0  0
    8.4282   -5.9007   14.6483 H   0  0  0  0  0  0  0  0  0  0  0  0
   10.9480   -3.7904   12.7117 H   0  0  0  0  0  0  0  0  0  0  0  0
   11.3543   -4.9576   14.1249 H   0  0  0  0  0  0  0  0  0  0  0  0
   10.0048   -8.1513   10.6021 H   0  0  0  0  0  0  0  0  0  0  0  0
    9.0670   -7.0878   10.1045 H   0  0  0  0  0  0  0  0  0  0  0  0
  1  2  1  0
  2  3  1  0
  3  4  1  0
  4  5  1  0
  5  6  1  0
  6  7  1  0
  7  8  1  0
  8  9  1  0
  8 10  1  0
 10 11  1  0
 11 12  1  0
 12 13  1  0
 13 14  1  0
 14 15  1  0
 15 10  1  0
  1 16  1  0
  1 17  1  0
  1 18  1  0
  2 19  1  0
  2 20  1  0
  3 21  1  0
  3 22  1  0
  4 23  1  0
  4 24  1  0
  5 25  1  0
  5 26  1  0
  6 27  1  0
  6 28  1  0
  7 29  1  0
  7 30  1  0
  8 31  1  0
  9 32  1  0
  9 33  1  0
 10 34  1  0
 11 35  1  0
 11 36  1  0
 12 37  1  0
 12 38  1  0
 13 39  1  0
 13 40  1  0
 15 41  1  0
 15 42  1  0
M  END
>  <Energy>  (619) 
1304.7498341358751

>  <compound_id>  (619) 
84716

>  <target_id>  (619) 
1

>  <reference_id>  (619) 
112

>  <inspiration_ids>  (619) 
[112, 93]

>  <energy_score>  (619) 
1249.6245898882962

>  <distance_score>  (619) 
13.20558564598404

>  <path>  (619) 
/opt/xchem-fragalysis-2/maxwin/BulkDock/SCRATCH/511020/C84716-P112/C84716-P112.minimised.mol

>  <scratch_subdir>  (619) 
/opt/xchem-fragalysis-2/maxwin/BulkDock/SCRATCH/511020/C84716-P112

>  <fragmenstein_runtime>  (619) 
13.93229627609253

>  <fragmenstein_outcome>  (619) 
too moved

>  <fragmenstein_mode>  (619) 
expansion

>  <fragmenstein_error>  (619) 


$$$$
C84716-P93
     RDKit          3D

 42 42  0  0  0  0  0  0  0  0999 V2000
    0.1902  -15.8834   18.5574 C   0  0  0  0  0  0  0  0  0  0  0  0
    1.2766  -15.0653   17.8310 C   0  0  0  0  0  0  0  0  0  0  0  0
    2.1447  -14.1229   18.7219 C   0  0  0  0  0  0  0  0  0  0  0  0
    3.4145  -12.9295   18.1854 C   0  0  0  0  0  0  0  0  0  0  0  0
    3.5769  -11.5241   16.7302 C   0  0  0  0  0  0  0  0  0  0  0  0
    4.3654  -10.9556   14.9512 C   0  0  0  0  0  0  0  0  0  0  0  0
    5.3887   -9.3693   14.1394 C   0  0  0  0  0  0  0  0  0  0  0  0
    7.0380   -8.1120   14.6699 C   0  0  0  0  0  0  0  0  0  0  0  0
    8.1191   -9.6724   15.4649 N   0  0  0  0  0  0  0  0  0  0  0  0
    8.5616   -6.6394   14.8035 C   0  0  0  0  0  0  0  0  0  0  0  0
   10.6922   -6.4782   15.2536 C   0  0  0  0  0  0  0  0  0  0  0  0
   11.4373   -4.8383   15.7887 C   0  0  0  0  0  0  0  0  0  0  0  0
   11.1791   -3.7791   14.7938 C   0  0  0  0  0  0  0  0  0  0  0  0
    9.8578   -3.5172   15.0269 O   0  0  0  0  0  0  0  0  0  0  0  0
    8.7559   -4.5024   14.8819 C   0  0  0  0  0  0  0  0  0  0  0  0
   -0.3469  -16.5166   17.8449 H   0  0  0  0  0  0  0  0  0  0  0  0
    0.6409  -16.5230   19.3224 H   0  0  0  0  0  0  0  0  0  0  0  0
   -0.5295  -15.2174   19.0433 H   0  0  0  0  0  0  0  0  0  0  0  0
    0.7572  -14.4662   17.0925 H   0  0  0  0  0  0  0  0  0  0  0  0
    1.9514  -15.7808   17.3527 H   0  0  0  0  0  0  0  0  0  0  0  0
    2.7585  -14.8107   19.3286 H   0  0  0  0  0  0  0  0  0  0  0  0
    1.4961  -13.6961   19.4820 H   0  0  0  0  0  0  0  0  0  0  0  0
    4.0463  -13.8110   18.0067 H   0  0  0  0  0  0  0  0  0  0  0  0
    3.8801  -12.6353   19.1216 H   0  0  0  0  0  0  0  0  0  0  0  0
    2.7228  -11.8846   16.3072 H   0  0  0  0  0  0  0  0  0  0  0  0
    3.2446  -10.5691   17.1578 H   0  0  0  0  0  0  0  0  0  0  0  0
    3.5315  -10.7485   14.3082 H   0  0  0  0  0  0  0  0  0  0  0  0
    4.8145  -11.8359   14.4815 H   0  0  0  0  0  0  0  0  0  0  0  0
    4.6284   -8.7494   13.6334 H   0  0  0  0  0  0  0  0  0  0  0  0
    5.9409  -10.2985   13.7939 H   0  0  0  0  0  0  0  0  0  0  0  0
    6.5580   -7.4500   15.4177 H   0  0  0  0  0  0  0  0  0  0  0  0
    9.0847   -9.4329   15.2345 H   0  0  0  0  0  0  0  0  0  0  0  0
    7.9392  -10.4106   14.7637 H   0  0  0  0  0  0  0  0  0  0  0  0
    8.4223   -6.9419   13.7781 H   0  0  0  0  0  0  0  0  0  0  0  0
   11.6729   -6.9493   15.5358 H   0  0  0  0  0  0  0  0  0  0  0  0
   10.7804   -6.5292   16.3350 H   0  0  0  0  0  0  0  0  0  0  0  0
   11.0995   -4.5724   16.7923 H   0  0  0  0  0  0  0  0  0  0  0  0
   12.5158   -4.9928   15.9584 H   0  0  0  0  0  0  0  0  0  0  0  0
   11.3505   -3.9957   13.7388 H   0  0  0  0  0  0  0  0  0  0  0  0
   11.7614   -2.8840   15.0336 H   0  0  0  0  0  0  0  0  0  0  0  0
    8.1558   -4.3327   15.7811 H   0  0  0  0  0  0  0  0  0  0  0  0
    8.1894   -3.6219   14.3652 H   0  0  0  0  0  0  0  0  0  0  0  0
  1  2  1  0
  2  3  1  0
  3  4  1  0
  4  5  1  0
  5  6  1  0
  6  7  1  0
  7  8  1  0
  8  9  1  0
  8 10  1  0
 10 11  1  0
 11 12  1  0
 12 13  1  0
 13 14  1  0
 14 15  1  0
 15 10  1  0
  1 16  1  0
  1 17  1  0
  1 18  1  0
  2 19  1  0
  2 20  1  0
  3 21  1  0
  3 22  1  0
  4 23  1  0
  4 24  1  0
  5 25  1  0
  5 26  1  0
  6 27  1  0
  6 28  1  0
  7 29  1  0
  7 30  1  0
  8 31  1  0
  9 32  1  0
  9 33  1  0
 10 34  1  0
 11 35  1  0
 11 36  1  0
 12 37  1  0
 12 38  1  0
 13 39  1  0
 13 40  1  0
 15 41  1  0
 15 42  1  0
M  END
>  <Energy>  (620) 
1072.1644095461118

>  <compound_id>  (620) 
84716

>  <target_id>  (620) 
1

>  <reference_id>  (620) 
93

>  <inspiration_ids>  (620) 
[112, 93]

>  <energy_score>  (620) 
1017.0391652985251

>  <distance_score>  (620) 
13.949116101999783

>  <path>  (620) 
/opt/xchem-fragalysis-2/maxwin/BulkDock/SCRATCH/511020/C84716-P93/C84716-P93.minimised.mol

>  <scratch_subdir>  (620) 
/opt/xchem-fragalysis-2/maxwin/BulkDock/SCRATCH/511020/C84716-P93

>  <fragmenstein_runtime>  (620) 
12.702101707458496

>  <fragmenstein_outcome>  (620) 
too moved

>  <fragmenstein_mode>  (620) 
expansion

>  <fragmenstein_error>  (620) 


$$$$
C84724-P112
     RDKit          3D

 38 38  0  0  0  0  0  0  0  0999 V2000
    4.5319   -9.9549   13.8030 C   0  0  0  0  0  0  0  0  0  0  0  0
    4.8043   -8.3360   13.7942 C   0  0  0  0  0  0  0  0  0  0  0  0
    5.6964   -7.4740   13.9506 C   0  0  0  0  0  0  0  0  0  0  0  0
    6.7752   -6.7565   15.0924 C   0  0  0  0  0  0  0  0  0  0  0  0
    7.2143   -5.3680   15.8417 C   0  0  0  0  0  0  0  0  0  0  0  0
    8.4806   -3.7936   15.3671 C   0  0  0  0  0  0  0  0  0  0  0  0
    8.1039   -2.3441   15.1678 N   0  0  0  0  0  0  0  0  0  0  0  0
    6.9986   -1.7519   14.4538 C   0  0  0  0  0  0  0  0  0  0  0  0
    6.9678   -0.2640   14.8334 C   0  0  0  0  0  0  0  0  0  0  0  0
   10.3952   -3.5795   15.3412 C   0  0  0  0  0  0  0  0  0  0  0  0
   10.9714   -2.2234   14.8148 C   0  0  0  0  0  0  0  0  0  0  0  0
   12.4983   -2.2281   14.7315 C   0  0  0  0  0  0  0  0  0  0  0  0
   13.1192   -2.4629   16.0939 C   0  0  0  0  0  0  0  0  0  0  0  0
   12.1425   -2.9431   17.0059 O   0  0  0  0  0  0  0  0  0  0  0  0
   11.4008   -4.0412   16.4596 C   0  0  0  0  0  0  0  0  0  0  0  0
    5.4328  -10.5211   13.5494 H   0  0  0  0  0  0  0  0  0  0  0  0
    3.7972  -10.0575   13.0603 H   0  0  0  0  0  0  0  0  0  0  0  0
    4.1574  -10.5019   14.6655 H   0  0  0  0  0  0  0  0  0  0  0  0
    6.3575   -7.0162   16.0273 H   0  0  0  0  0  0  0  0  0  0  0  0
    7.7495   -6.9065   14.6626 H   0  0  0  0  0  0  0  0  0  0  0  0
    7.1114   -5.5896   16.9197 H   0  0  0  0  0  0  0  0  0  0  0  0
    6.1966   -5.1138   15.9821 H   0  0  0  0  0  0  0  0  0  0  0  0
    8.7361   -4.3642   14.5193 H   0  0  0  0  0  0  0  0  0  0  0  0
    8.8886   -1.8732   14.7253 H   0  0  0  0  0  0  0  0  0  0  0  0
    7.1596   -1.7694   13.3822 H   0  0  0  0  0  0  0  0  0  0  0  0
    6.0323   -2.2187   14.6421 H   0  0  0  0  0  0  0  0  0  0  0  0
    6.1651    0.2401   14.2851 H   0  0  0  0  0  0  0  0  0  0  0  0
    7.9089    0.2363   14.5793 H   0  0  0  0  0  0  0  0  0  0  0  0
    6.7802   -0.1246   15.9025 H   0  0  0  0  0  0  0  0  0  0  0  0
   10.6737   -4.2475   14.5155 H   0  0  0  0  0  0  0  0  0  0  0  0
   10.6377   -2.0583   13.8014 H   0  0  0  0  0  0  0  0  0  0  0  0
   10.6564   -1.3874   15.4505 H   0  0  0  0  0  0  0  0  0  0  0  0
   12.8209   -3.0199   14.0438 H   0  0  0  0  0  0  0  0  0  0  0  0
   12.8688   -1.2894   14.3042 H   0  0  0  0  0  0  0  0  0  0  0  0
   13.5113   -1.5248   16.4994 H   0  0  0  0  0  0  0  0  0  0  0  0
   13.9563   -3.1676   16.0363 H   0  0  0  0  0  0  0  0  0  0  0  0
   12.1068   -4.7736   16.0431 H   0  0  0  0  0  0  0  0  0  0  0  0
   10.9669   -4.5254   17.3145 H   0  0  0  0  0  0  0  0  0  0  0  0
  1  2  1  0
  2  3  3  0
  3  4  1  0
  4  5  1  0
  5  6  1  0
  6  7  1  0
  7  8  1  0
  8  9  1  0
  6 10  1  0
 10 11  1  0
 11 12  1  0
 12 13  1  0
 13 14  1  0
 14 15  1  0
 15 10  1  0
  1 16  1  0
  1 17  1  0
  1 18  1  0
  4 19  1  0
  4 20  1  0
  5 21  1  0
  5 22  1  0
  6 23  1  0
  7 24  1  0
  8 25  1  0
  8 26  1  0
  9 27  1  0
  9 28  1  0
  9 29  1  0
 10 30  1  0
 11 31  1  0
 11 32  1  0
 12 33  1  0
 12 34  1  0
 13 35  1  0
 13 36  1  0
 15 37  1  0
 15 38  1  0
M  END
>  <Energy>  (621) 
339.3466066855085

>  <compound_id>  (621) 
84724

>  <target_id>  (621) 
1

>  <reference_id>  (621) 
112

>  <inspiration_ids>  (621) 
[112, 93]

>  <energy_score>  (621) 
290.2490178786174

>  <distance_score>  (621) 
12.277474222845743

>  <path>  (621) 
/opt/xchem-fragalysis-2/maxwin/BulkDock/SCRATCH/511020/C84724-P112/C84724-P112.minimised.mol

>  <scratch_subdir>  (621) 
/opt/xchem-fragalysis-2/maxwin/BulkDock/SCRATCH/511020/C84724-P112

>  <fragmenstein_runtime>  (621) 
14.17043161392212

>  <fragmenstein_outcome>  (621) 
too moved

>  <fragmenstein_mode>  (621) 
expansion

>  <fragmenstein_error>  (621) 


$$$$
C84724-P93
     RDKit          3D

 38 38  0  0  0  0  0  0  0  0999 V2000
    5.4450  -18.2097   16.6496 C   0  0  0  0  0  0  0  0  0  0  0  0
    6.7289  -17.5877   17.0898 C   0  0  0  0  0  0  0  0  0  0  0  0
    7.7456  -17.0559   17.5012 C   0  0  0  0  0  0  0  0  0  0  0  0
    8.9336  -16.3377   18.2587 C   0  0  0  0  0  0  0  0  0  0  0  0
   10.0162  -15.4036   17.4725 C   0  0  0  0  0  0  0  0  0  0  0  0
   11.0973  -14.1888   18.0883 C   0  0  0  0  0  0  0  0  0  0  0  0
   10.9082  -13.4677   19.3949 N   0  0  0  0  0  0  0  0  0  0  0  0
   10.6354  -12.0079   19.5371 C   0  0  0  0  0  0  0  0  0  0  0  0
   11.4795  -11.3382   20.6235 C   0  0  0  0  0  0  0  0  0  0  0  0
   11.5822  -13.2013   16.9673 C   0  0  0  0  0  0  0  0  0  0  0  0
   11.9936  -13.8243   15.6248 C   0  0  0  0  0  0  0  0  0  0  0  0
   12.2831  -12.7134   14.6028 C   0  0  0  0  0  0  0  0  0  0  0  0
   13.2812  -11.7092   15.1522 C   0  0  0  0  0  0  0  0  0  0  0  0
   12.8687  -11.2812   16.4459 O   0  0  0  0  0  0  0  0  0  0  0  0
   12.8154  -12.3720   17.3562 C   0  0  0  0  0  0  0  0  0  0  0  0
    5.5152  -18.5273   15.6052 H   0  0  0  0  0  0  0  0  0  0  0  0
    4.6245  -17.4917   16.7392 H   0  0  0  0  0  0  0  0  0  0  0  0
    5.2131  -19.0834   17.2653 H   0  0  0  0  0  0  0  0  0  0  0  0
    8.4993  -15.7412   19.0683 H   0  0  0  0  0  0  0  0  0  0  0  0
    9.5090  -17.1319   18.7526 H   0  0  0  0  0  0  0  0  0  0  0  0
   10.7040  -16.1350   17.0196 H   0  0  0  0  0  0  0  0  0  0  0  0
    9.5308  -14.9667   16.6088 H   0  0  0  0  0  0  0  0  0  0  0  0
   11.9721  -14.8174   18.3127 H   0  0  0  0  0  0  0  0  0  0  0  0
   10.3187  -14.0082   20.0254 H   0  0  0  0  0  0  0  0  0  0  0  0
   10.6983  -11.4376   18.6093 H   0  0  0  0  0  0  0  0  0  0  0  0
    9.6046  -11.8949   19.8890 H   0  0  0  0  0  0  0  0  0  0  0  0
   12.5287  -11.2363   20.3382 H   0  0  0  0  0  0  0  0  0  0  0  0
   11.4462  -11.9284   21.5467 H   0  0  0  0  0  0  0  0  0  0  0  0
   11.0668  -10.3557   20.8685 H   0  0  0  0  0  0  0  0  0  0  0  0
   10.7394  -12.5315   16.7450 H   0  0  0  0  0  0  0  0  0  0  0  0
   11.2332  -14.4974   15.2436 H   0  0  0  0  0  0  0  0  0  0  0  0
   12.8914  -14.4432   15.7550 H   0  0  0  0  0  0  0  0  0  0  0  0
   12.6543  -13.1416   13.6660 H   0  0  0  0  0  0  0  0  0  0  0  0
   11.3447  -12.1908   14.3808 H   0  0  0  0  0  0  0  0  0  0  0  0
   14.2871  -12.1416   15.2119 H   0  0  0  0  0  0  0  0  0  0  0  0
   13.3370  -10.8457   14.4882 H   0  0  0  0  0  0  0  0  0  0  0  0
   13.7439  -12.9573   17.3190 H   0  0  0  0  0  0  0  0  0  0  0  0
   12.7871  -11.9495   18.3521 H   0  0  0  0  0  0  0  0  0  0  0  0
  1  2  1  0
  2  3  3  0
  3  4  1  0
  4  5  1  0
  5  6  1  0
  6  7  1  0
  7  8  1  0
  8  9  1  0
  6 10  1  0
 10 11  1  0
 11 12  1  0
 12 13  1  0
 13 14  1  0
 14 15  1  0
 15 10  1  0
  1 16  1  0
  1 17  1  0
  1 18  1  0
  4 19  1  0
  4 20  1  0
  5 21  1  0
  5 22  1  0
  6 23  1  0
  7 24  1  0
  8 25  1  0
  8 26  1  0
  9 27  1  0
  9 28  1  0
  9 29  1  0
 10 30  1  0
 11 31  1  0
 11 32  1  0
 12 33  1  0
 12 34  1  0
 13 35  1  0
 13 36  1  0
 15 37  1  0
 15 38  1  0
M  END
>  <Energy>  (622) 
73.50111389799946

>  <compound_id>  (622) 
84724

>  <target_id>  (622) 
1

>  <reference_id>  (622) 
93

>  <inspiration_ids>  (622) 
[112, 93]

>  <energy_score>  (622) 
24.40352509110963

>  <distance_score>  (622) 
14.3813477347452

>  <path>  (622) 
/opt/xchem-fragalysis-2/maxwin/BulkDock/SCRATCH/511020/C84724-P93/C84724-P93.minimised.mol

>  <scratch_subdir>  (622) 
/opt/xchem-fragalysis-2/maxwin/BulkDock/SCRATCH/511020/C84724-P93

>  <fragmenstein_runtime>  (622) 
11.116355180740356

>  <fragmenstein_outcome>  (622) 
too moved

>  <fragmenstein_mode>  (622) 
expansion

>  <fragmenstein_error>  (622) 


$$$$
C74516-P112
     RDKit          3D

 52 54  0  0  0  0  0  0  0  0999 V2000
   -2.3635  -22.7744   11.7912 C   0  0  0  0  0  0  0  0  0  0  0  0
   -3.5301  -22.0122   11.4006 N   0  0  0  0  0  0  0  0  0  0  0  0
   -3.7200  -21.9960    9.9573 C   0  0  0  0  0  0  0  0  0  0  0  0
   -3.6040  -20.6635   11.9898 C   0  0  0  0  0  0  0  0  0  0  0  0
   -2.9151  -20.2211   13.3560 C   0  0  0  0  0  0  0  0  0  0  0  0
   -3.4168  -18.8805   13.6240 O   0  0  0  0  0  0  0  0  0  0  0  0
   -3.0713  -17.9623   14.7097 C   0  0  0  0  0  0  0  0  0  0  0  0
   -4.3813  -17.9526   15.3468 C   0  0  0  0  0  0  0  0  0  0  0  0
   -4.1848  -18.1927   16.8590 C   0  0  0  0  0  0  0  0  0  0  0  0
   -3.4436  -17.1039   17.3733 O   0  0  0  0  0  0  0  0  0  0  0  0
   -3.6961  -15.9853   16.5062 C   0  0  0  0  0  0  0  0  0  0  0  0
   -2.9652  -16.0211   14.8918 C   0  0  0  0  0  0  0  0  0  0  0  0
   -1.6166  -14.4900   14.6852 N   0  0  0  0  0  0  0  0  0  0  0  0
   -0.6683  -13.8446   13.1465 C   0  0  0  0  0  0  0  0  0  0  0  0
   -0.7063  -14.3862   12.0342 O   0  0  0  0  0  0  0  0  0  0  0  0
    0.3013  -12.2300   13.0366 C   0  0  0  0  0  0  0  0  0  0  0  0
    1.7280  -10.9448   12.7136 C   0  0  0  0  0  0  0  0  0  0  0  0
    3.1553  -10.4360   13.7560 C   0  0  0  0  0  0  0  0  0  0  0  0
    4.0201   -9.9460   12.9070 N   0  0  0  0  0  0  0  0  0  0  0  0
    3.1732   -9.5382   11.5951 C   0  0  0  0  0  0  0  0  0  0  0  0
    3.3070   -7.7388   11.4274 C   0  0  0  0  0  0  0  0  0  0  0  0
    2.3390   -6.8592   10.9384 C   0  0  0  0  0  0  0  0  0  0  0  0
    1.2432   -7.5909   10.5393 C   0  0  0  0  0  0  0  0  0  0  0  0
    1.0651   -9.2924   10.6815 C   0  0  0  0  0  0  0  0  0  0  0  0
    1.9733  -10.2828   11.3054 C   0  0  0  0  0  0  0  0  0  0  0  0
   -2.4168  -23.7957   11.3972 H   0  0  0  0  0  0  0  0  0  0  0  0
   -1.4392  -22.3159   11.4214 H   0  0  0  0  0  0  0  0  0  0  0  0
   -2.2781  -22.8715   12.8781 H   0  0  0  0  0  0  0  0  0  0  0  0
   -2.8929  -21.4977    9.4390 H   0  0  0  0  0  0  0  0  0  0  0  0
   -4.6515  -21.4822    9.6949 H   0  0  0  0  0  0  0  0  0  0  0  0
   -3.8050  -23.0159    9.5661 H   0  0  0  0  0  0  0  0  0  0  0  0
   -4.6675  -20.4006   12.0527 H   0  0  0  0  0  0  0  0  0  0  0  0
   -3.2025  -19.9752   11.2359 H   0  0  0  0  0  0  0  0  0  0  0  0
   -1.8284  -20.1715   13.2228 H   0  0  0  0  0  0  0  0  0  0  0  0
   -3.0987  -20.9055   14.1781 H   0  0  0  0  0  0  0  0  0  0  0  0
   -2.3223  -18.5470   15.2627 H   0  0  0  0  0  0  0  0  0  0  0  0
   -4.9947  -18.5089   14.6688 H   0  0  0  0  0  0  0  0  0  0  0  0
   -4.9651  -17.0533   15.1168 H   0  0  0  0  0  0  0  0  0  0  0  0
   -3.6441  -19.1164   17.0881 H   0  0  0  0  0  0  0  0  0  0  0  0
   -5.0952  -18.1746   17.4603 H   0  0  0  0  0  0  0  0  0  0  0  0
   -3.3981  -15.0073   16.8745 H   0  0  0  0  0  0  0  0  0  0  0  0
   -4.7761  -16.0619   16.5602 H   0  0  0  0  0  0  0  0  0  0  0  0
   -2.0809  -16.5264   14.7461 H   0  0  0  0  0  0  0  0  0  0  0  0
   -1.3525  -13.9202   15.5170 H   0  0  0  0  0  0  0  0  0  0  0  0
   -0.5506  -11.5695   12.8059 H   0  0  0  0  0  0  0  0  0  0  0  0
    0.5050  -12.5273   11.9803 H   0  0  0  0  0  0  0  0  0  0  0  0
    3.6152  -10.6956   14.7199 H   0  0  0  0  0  0  0  0  0  0  0  0
    4.9537  -10.3468   12.8996 H   0  0  0  0  0  0  0  0  0  0  0  0
    4.0217   -7.2674   12.1012 H   0  0  0  0  0  0  0  0  0  0  0  0
    2.4426   -5.7905   10.8759 H   0  0  0  0  0  0  0  0  0  0  0  0
    0.5294   -7.0756    9.8826 H   0  0  0  0  0  0  0  0  0  0  0  0
    0.4165   -9.7042    9.9091 H   0  0  0  0  0  0  0  0  0  0  0  0
  1  2  1  0
  2  3  1  0
  2  4  1  0
  4  5  1  0
  5  6  1  0
  6  7  1  0
  7  8  1  0
  8  9  1  0
  9 10  1  0
 10 11  1  0
 11 12  1  0
 12 13  1  0
 13 14  1  0
 14 15  2  0
 14 16  1  0
 16 17  1  0
 17 18  2  0
 18 19  1  0
 19 20  1  0
 20 21  2  0
 21 22  1  0
 22 23  2  0
 23 24  1  0
 24 25  2  0
 12  7  1  0
 25 17  1  0
 25 20  1  0
  1 26  1  0
  1 27  1  0
  1 28  1  0
  3 29  1  0
  3 30  1  0
  3 31  1  0
  4 32  1  0
  4 33  1  0
  5 34  1  0
  5 35  1  0
  7 36  1  0
  8 37  1  0
  8 38  1  0
  9 39  1  0
  9 40  1  0
 11 41  1  0
 11 42  1  0
 12 43  1  0
 13 44  1  0
 16 45  1  0
 16 46  1  0
 18 47  1  0
 19 48  1  0
 21 49  1  0
 22 50  1  0
 23 51  1  0
 24 52  1  0
M  END
>  <Energy>  (623) 
873.57722606661048

>  <compound_id>  (623) 
74516

>  <target_id>  (623) 
1

>  <reference_id>  (623) 
112

>  <inspiration_ids>  (623) 
[112, 93]

>  <energy_score>  (623) 
741.4875028657548

>  <distance_score>  (623) 
13.15846872298947

>  <path>  (623) 
/opt/xchem-fragalysis-2/maxwin/BulkDock/SCRATCH/511020/C74516-P112/C74516-P112.minimised.mol

>  <scratch_subdir>  (623) 
/opt/xchem-fragalysis-2/maxwin/BulkDock/SCRATCH/511020/C74516-P112

>  <fragmenstein_runtime>  (623) 
20.65891170501709

>  <fragmenstein_outcome>  (623) 
too moved

>  <fragmenstein_mode>  (623) 
expansion

>  <fragmenstein_error>  (623) 


$$$$
C74516-P93
     RDKit          3D

 52 54  0  0  0  0  0  0  0  0999 V2000
   -9.1775  -18.5295    9.1362 C   0  0  0  0  0  0  0  0  0  0  0  0
   -8.1594  -18.9997   10.0605 N   0  0  0  0  0  0  0  0  0  0  0  0
   -8.7307  -19.9661   10.9839 C   0  0  0  0  0  0  0  0  0  0  0  0
   -7.4984  -17.9199   10.8216 C   0  0  0  0  0  0  0  0  0  0  0  0
   -6.6297  -16.9272    9.9978 C   0  0  0  0  0  0  0  0  0  0  0  0
   -5.2529  -17.3412    9.8968 O   0  0  0  0  0  0  0  0  0  0  0  0
   -4.3741  -16.5013    9.0993 C   0  0  0  0  0  0  0  0  0  0  0  0
   -4.5356  -17.1783    7.7199 C   0  0  0  0  0  0  0  0  0  0  0  0
   -4.0516  -18.6335    7.7908 C   0  0  0  0  0  0  0  0  0  0  0  0
   -3.0899  -18.8730    8.8221 O   0  0  0  0  0  0  0  0  0  0  0  0
   -2.0746  -17.8662    8.9438 C   0  0  0  0  0  0  0  0  0  0  0  0
   -2.6879  -16.4764    9.3311 C   0  0  0  0  0  0  0  0  0  0  0  0
   -1.7581  -15.2951   10.2967 N   0  0  0  0  0  0  0  0  0  0  0  0
   -0.1418  -15.2485   10.6998 C   0  0  0  0  0  0  0  0  0  0  0  0
    0.7244  -16.0847   10.4843 O   0  0  0  0  0  0  0  0  0  0  0  0
    0.6479  -13.6169   11.4819 C   0  0  0  0  0  0  0  0  0  0  0  0
    2.2755  -12.7248   10.6519 C   0  0  0  0  0  0  0  0  0  0  0  0
    3.2524  -13.3495    9.7585 C   0  0  0  0  0  0  0  0  0  0  0  0
    4.3990  -12.6182    9.5669 N   0  0  0  0  0  0  0  0  0  0  0  0
    4.0763  -11.2992    9.5808 C   0  0  0  0  0  0  0  0  0  0  0  0
    4.7076  -10.2300    8.8986 C   0  0  0  0  0  0  0  0  0  0  0  0
    4.1157   -8.9659    8.9387 C   0  0  0  0  0  0  0  0  0  0  0  0
    2.9353   -8.7873    9.6429 C   0  0  0  0  0  0  0  0  0  0  0  0
    2.3415   -9.8773   10.3224 C   0  0  0  0  0  0  0  0  0  0  0  0
    2.9159  -11.1979   10.3765 C   0  0  0  0  0  0  0  0  0  0  0  0
   -8.7296  -17.9518    8.3217 H   0  0  0  0  0  0  0  0  0  0  0  0
   -9.9282  -17.8977    9.6194 H   0  0  0  0  0  0  0  0  0  0  0  0
   -9.6877  -19.3704    8.6531 H   0  0  0  0  0  0  0  0  0  0  0  0
   -9.1174  -20.8391   10.4514 H   0  0  0  0  0  0  0  0  0  0  0  0
   -9.5065  -19.5225   11.6009 H   0  0  0  0  0  0  0  0  0  0  0  0
   -7.9791  -20.3474   11.6652 H   0  0  0  0  0  0  0  0  0  0  0  0
   -6.8437  -18.3626   11.5795 H   0  0  0  0  0  0  0  0  0  0  0  0
   -8.2673  -17.3414   11.3507 H   0  0  0  0  0  0  0  0  0  0  0  0
   -7.0442  -16.7521    9.0022 H   0  0  0  0  0  0  0  0  0  0  0  0
   -6.6331  -15.9642   10.5223 H   0  0  0  0  0  0  0  0  0  0  0  0
   -4.7344  -15.4691    9.0780 H   0  0  0  0  0  0  0  0  0  0  0  0
   -5.5716  -17.1643    7.3641 H   0  0  0  0  0  0  0  0  0  0  0  0
   -3.9542  -16.6348    6.9651 H   0  0  0  0  0  0  0  0  0  0  0  0
   -4.8976  -19.3007    7.9822 H   0  0  0  0  0  0  0  0  0  0  0  0
   -3.6207  -18.9346    6.8294 H   0  0  0  0  0  0  0  0  0  0  0  0
   -1.5443  -17.7910    7.9854 H   0  0  0  0  0  0  0  0  0  0  0  0
   -1.3289  -18.2221    9.6608 H   0  0  0  0  0  0  0  0  0  0  0  0
   -2.4911  -15.9315    8.4042 H   0  0  0  0  0  0  0  0  0  0  0  0
   -2.2130  -14.5151   10.6788 H   0  0  0  0  0  0  0  0  0  0  0  0
    0.8392  -13.9477   12.5059 H   0  0  0  0  0  0  0  0  0  0  0  0
   -0.0758  -12.8001   11.5022 H   0  0  0  0  0  0  0  0  0  0  0  0
    3.2500  -14.3546    9.3454 H   0  0  0  0  0  0  0  0  0  0  0  0
    5.1977  -12.9801    9.0684 H   0  0  0  0  0  0  0  0  0  0  0  0
    5.6105  -10.3959    8.3189 H   0  0  0  0  0  0  0  0  0  0  0  0
    4.5704   -8.1347    8.4083 H   0  0  0  0  0  0  0  0  0  0  0  0
    2.4374   -7.8222    9.6468 H   0  0  0  0  0  0  0  0  0  0  0  0
    1.3395   -9.7486   10.7102 H   0  0  0  0  0  0  0  0  0  0  0  0
  1  2  1  0
  2  3  1  0
  2  4  1  0
  4  5  1  0
  5  6  1  0
  6  7  1  0
  7  8  1  0
  8  9  1  0
  9 10  1  0
 10 11  1  0
 11 12  1  0
 12 13  1  0
 13 14  1  0
 14 15  2  0
 14 16  1  0
 16 17  1  0
 17 18  2  0
 18 19  1  0
 19 20  1  0
 20 21  2  0
 21 22  1  0
 22 23  2  0
 23 24  1  0
 24 25  2  0
 12  7  1  0
 25 17  1  0
 25 20  1  0
  1 26  1  0
  1 27  1  0
  1 28  1  0
  3 29  1  0
  3 30  1  0
  3 31  1  0
  4 32  1  0
  4 33  1  0
  5 34  1  0
  5 35  1  0
  7 36  1  0
  8 37  1  0
  8 38  1  0
  9 39  1  0
  9 40  1  0
 11 41  1  0
 11 42  1  0
 12 43  1  0
 13 44  1  0
 16 45  1  0
 16 46  1  0
 18 47  1  0
 19 48  1  0
 21 49  1  0
 22 50  1  0
 23 51  1  0
 24 52  1  0
M  END
>  <Energy>  (624) 
352.4708816241656

>  <compound_id>  (624) 
74516

>  <target_id>  (624) 
1

>  <reference_id>  (624) 
93

>  <inspiration_ids>  (624) 
[112, 93]

>  <energy_score>  (624) 
220.38115842330495

>  <distance_score>  (624) 
13.617118574581616

>  <path>  (624) 
/opt/xchem-fragalysis-2/maxwin/BulkDock/SCRATCH/511020/C74516-P93/C74516-P93.minimised.mol

>  <scratch_subdir>  (624) 
/opt/xchem-fragalysis-2/maxwin/BulkDock/SCRATCH/511020/C74516-P93

>  <fragmenstein_runtime>  (624) 
19.725316524505615

>  <fragmenstein_outcome>  (624) 
too moved

>  <fragmenstein_mode>  (624) 
expansion

>  <fragmenstein_error>  (624) 


$$$$
C69192-P112
     RDKit          3D

 49 51  0  0  0  0  0  0  0  0999 V2000
   -7.7145  -19.5470   10.9500 C   0  0  0  0  0  0  0  0  0  0  0  0
   -6.3701  -19.9129   10.4556 N   0  0  0  0  0  0  0  0  0  0  0  0
   -5.5447  -20.4678   11.5282 C   0  0  0  0  0  0  0  0  0  0  0  0
   -5.7486  -18.6604    9.9722 C   0  0  0  0  0  0  0  0  0  0  0  0
   -4.2700  -18.6743    9.5034 C   0  0  0  0  0  0  0  0  0  0  0  0
   -3.8438  -17.2914    9.4682 O   0  0  0  0  0  0  0  0  0  0  0  0
   -2.4730  -16.9404    9.0444 C   0  0  0  0  0  0  0  0  0  0  0  0
   -2.4871  -17.1044    7.5260 C   0  0  0  0  0  0  0  0  0  0  0  0
   -3.4685  -16.1184    6.9040 C   0  0  0  0  0  0  0  0  0  0  0  0
   -3.4049  -14.8076    7.4715 O   0  0  0  0  0  0  0  0  0  0  0  0
   -2.1767  -14.5030    8.1634 C   0  0  0  0  0  0  0  0  0  0  0  0
   -2.1000  -15.3508    9.4374 C   0  0  0  0  0  0  0  0  0  0  0  0
   -1.2534  -14.7627   10.6677 N   0  0  0  0  0  0  0  0  0  0  0  0
   -0.2260  -13.6776   10.7213 C   0  0  0  0  0  0  0  0  0  0  0  0
    0.2760  -13.0379    9.8385 O   0  0  0  0  0  0  0  0  0  0  0  0
    0.1839  -13.2288   12.1790 C   0  0  0  0  0  0  0  0  0  0  0  0
    1.2009  -13.4900   13.0327 C   0  0  0  0  0  0  0  0  0  0  0  0
    2.0740  -12.8394   14.7267 C   0  0  0  0  0  0  0  0  0  0  0  0
    2.0023  -14.4166   16.0571 C   0  0  0  0  0  0  0  0  0  0  0  0
    2.0077  -14.6336   17.3610 C   0  0  0  0  0  0  0  0  0  0  0  0
    1.0707  -13.9249   16.9321 C   0  0  0  0  0  0  0  0  0  0  0  0
    1.5540  -12.5713   15.7335 C   0  0  0  0  0  0  0  0  0  0  0  0
    1.2174  -11.9562   14.1465 C   0  0  0  0  0  0  0  0  0  0  0  0
    0.0798  -12.1490   12.9893 N   0  0  0  0  0  0  0  0  0  0  0  0
   -8.1766  -20.3499   11.5267 H   0  0  0  0  0  0  0  0  0  0  0  0
   -7.6987  -18.6539   11.5823 H   0  0  0  0  0  0  0  0  0  0  0  0
   -8.3723  -19.3330   10.1003 H   0  0  0  0  0  0  0  0  0  0  0  0
   -5.1718  -19.6854   12.1938 H   0  0  0  0  0  0  0  0  0  0  0  0
   -4.6849  -20.9992   11.1069 H   0  0  0  0  0  0  0  0  0  0  0  0
   -6.1092  -21.2017   12.1089 H   0  0  0  0  0  0  0  0  0  0  0  0
   -5.8233  -17.8859   10.7510 H   0  0  0  0  0  0  0  0  0  0  0  0
   -6.3434  -18.2764    9.1316 H   0  0  0  0  0  0  0  0  0  0  0  0
   -3.6163  -19.2112   10.1936 H   0  0  0  0  0  0  0  0  0  0  0  0
   -4.1964  -19.1268    8.5111 H   0  0  0  0  0  0  0  0  0  0  0  0
   -1.7311  -17.6231    9.4579 H   0  0  0  0  0  0  0  0  0  0  0  0
   -2.7488  -18.1209    7.2168 H   0  0  0  0  0  0  0  0  0  0  0  0
   -1.4774  -16.9169    7.1404 H   0  0  0  0  0  0  0  0  0  0  0  0
   -4.5000  -16.4702    7.0128 H   0  0  0  0  0  0  0  0  0  0  0  0
   -3.2739  -16.0308    5.8297 H   0  0  0  0  0  0  0  0  0  0  0  0
   -2.2067  -13.4365    8.4025 H   0  0  0  0  0  0  0  0  0  0  0  0
   -1.3145  -14.6577    7.5057 H   0  0  0  0  0  0  0  0  0  0  0  0
   -3.0766  -15.1364    9.8893 H   0  0  0  0  0  0  0  0  0  0  0  0
   -1.5061  -15.0204   11.5990 H   0  0  0  0  0  0  0  0  0  0  0  0
    1.6281  -14.3019   12.4800 H   0  0  0  0  0  0  0  0  0  0  0  0
    2.6825  -15.3476   15.8448 H   0  0  0  0  0  0  0  0  0  0  0  0
    2.1276  -15.5199   17.9381 H   0  0  0  0  0  0  0  0  0  0  0  0
    0.0076  -14.1376   17.3169 H   0  0  0  0  0  0  0  0  0  0  0  0
    0.4550  -12.9412   16.5504 H   0  0  0  0  0  0  0  0  0  0  0  0
   -0.4754  -11.3748   12.6531 H   0  0  0  0  0  0  0  0  0  0  0  0
  1  2  1  0
  2  3  1  0
  2  4  1  0
  4  5  1  0
  5  6  1  0
  6  7  1  0
  7  8  1  0
  8  9  1  0
  9 10  1  0
 10 11  1  0
 11 12  1  0
 12 13  1  0
 13 14  1  0
 14 15  2  0
 14 16  1  0
 16 17  2  0
 17 18  1  0
 18 19  2  0
 19 20  1  0
 20 21  2  0
 21 22  1  0
 22 23  2  0
 23 24  1  0
 12  7  1  0
 24 16  1  0
 23 18  1  0
  1 25  1  0
  1 26  1  0
  1 27  1  0
  3 28  1  0
  3 29  1  0
  3 30  1  0
  4 31  1  0
  4 32  1  0
  5 33  1  0
  5 34  1  0
  7 35  1  0
  8 36  1  0
  8 37  1  0
  9 38  1  0
  9 39  1  0
 11 40  1  0
 11 41  1  0
 12 42  1  0
 13 43  1  0
 17 44  1  0
 19 45  1  0
 20 46  1  0
 21 47  1  0
 22 48  1  0
 24 49  1  0
M  END
>  <Energy>  (625) 
1075.0612569979173

>  <compound_id>  (625) 
69192

>  <target_id>  (625) 
1

>  <reference_id>  (625) 
112

>  <inspiration_ids>  (625) 
[112, 93]

>  <energy_score>  (625) 
983.1440341568482

>  <distance_score>  (625) 
15.033440179045835

>  <path>  (625) 
/opt/xchem-fragalysis-2/maxwin/BulkDock/SCRATCH/511020/C69192-P112/C69192-P112.minimised.mol

>  <scratch_subdir>  (625) 
/opt/xchem-fragalysis-2/maxwin/BulkDock/SCRATCH/511020/C69192-P112

>  <fragmenstein_runtime>  (625) 
17.961454391479492

>  <fragmenstein_outcome>  (625) 
too moved

>  <fragmenstein_mode>  (625) 
expansion

>  <fragmenstein_error>  (625) 


$$$$
C69192-P93
     RDKit          3D

 49 51  0  0  0  0  0  0  0  0999 V2000
   -4.3583  -25.1555   11.4909 C   0  0  0  0  0  0  0  0  0  0  0  0
   -3.3965  -24.8033   10.4532 N   0  0  0  0  0  0  0  0  0  0  0  0
   -3.9231  -25.1383    9.1336 C   0  0  0  0  0  0  0  0  0  0  0  0
   -3.0363  -23.3655   10.5209 C   0  0  0  0  0  0  0  0  0  0  0  0
   -2.0286  -22.9328   11.6254 C   0  0  0  0  0  0  0  0  0  0  0  0
   -1.5426  -21.5966   11.3280 O   0  0  0  0  0  0  0  0  0  0  0  0
   -0.9165  -20.7814   12.3677 C   0  0  0  0  0  0  0  0  0  0  0  0
   -1.9127  -20.6039   13.5331 C   0  0  0  0  0  0  0  0  0  0  0  0
   -1.8110  -21.6722   14.6123 C   0  0  0  0  0  0  0  0  0  0  0  0
   -0.6773  -22.5078   14.4103 O   0  0  0  0  0  0  0  0  0  0  0  0
    0.5182  -21.7527   14.2195 C   0  0  0  0  0  0  0  0  0  0  0  0
    0.5976  -21.1372   12.8026 C   0  0  0  0  0  0  0  0  0  0  0  0
    1.7516  -20.0522   12.7415 N   0  0  0  0  0  0  0  0  0  0  0  0
    3.0525  -19.9802   13.4484 C   0  0  0  0  0  0  0  0  0  0  0  0
    3.5149  -20.6876   14.3014 O   0  0  0  0  0  0  0  0  0  0  0  0
    4.0424  -18.8245   13.1212 C   0  0  0  0  0  0  0  0  0  0  0  0
    4.4395  -18.0174   12.0484 C   0  0  0  0  0  0  0  0  0  0  0  0
    5.5714  -17.1598   12.4308 C   0  0  0  0  0  0  0  0  0  0  0  0
    6.3781  -16.1750   11.7867 C   0  0  0  0  0  0  0  0  0  0  0  0
    7.3778  -15.4789   12.4916 C   0  0  0  0  0  0  0  0  0  0  0  0
    7.6272  -15.7854   13.8230 C   0  0  0  0  0  0  0  0  0  0  0  0
    6.8730  -16.7751   14.4782 C   0  0  0  0  0  0  0  0  0  0  0  0
    5.8457  -17.4351   13.7630 C   0  0  0  0  0  0  0  0  0  0  0  0
    4.9399  -18.4148   14.1339 N   0  0  0  0  0  0  0  0  0  0  0  0
   -4.6535  -26.2079   11.4113 H   0  0  0  0  0  0  0  0  0  0  0  0
   -5.2639  -24.5426   11.4591 H   0  0  0  0  0  0  0  0  0  0  0  0
   -3.8632  -25.0527   12.4555 H   0  0  0  0  0  0  0  0  0  0  0  0
   -4.1616  -26.2062    9.0727 H   0  0  0  0  0  0  0  0  0  0  0  0
   -3.1726  -24.9470    8.3583 H   0  0  0  0  0  0  0  0  0  0  0  0
   -4.8242  -24.5720    8.8850 H   0  0  0  0  0  0  0  0  0  0  0  0
   -2.5566  -23.0887    9.5711 H   0  0  0  0  0  0  0  0  0  0  0  0
   -3.9258  -22.7333   10.5726 H   0  0  0  0  0  0  0  0  0  0  0  0
   -1.1599  -23.5994   11.6222 H   0  0  0  0  0  0  0  0  0  0  0  0
   -2.5034  -22.9924   12.5950 H   0  0  0  0  0  0  0  0  0  0  0  0
   -0.8277  -19.8097   11.8738 H   0  0  0  0  0  0  0  0  0  0  0  0
   -1.7185  -19.6511   14.0297 H   0  0  0  0  0  0  0  0  0  0  0  0
   -2.9425  -20.5378   13.1652 H   0  0  0  0  0  0  0  0  0  0  0  0
   -2.6925  -22.3069   14.6304 H   0  0  0  0  0  0  0  0  0  0  0  0
   -1.7456  -21.2130   15.6062 H   0  0  0  0  0  0  0  0  0  0  0  0
    0.5961  -20.9800   14.9952 H   0  0  0  0  0  0  0  0  0  0  0  0
    1.3641  -22.4332   14.3652 H   0  0  0  0  0  0  0  0  0  0  0  0
    0.9458  -21.9110   12.1074 H   0  0  0  0  0  0  0  0  0  0  0  0
    1.6561  -19.2433   12.1402 H   0  0  0  0  0  0  0  0  0  0  0  0
    3.9966  -18.0480   11.0616 H   0  0  0  0  0  0  0  0  0  0  0  0
    6.2068  -15.9478   10.7371 H   0  0  0  0  0  0  0  0  0  0  0  0
    7.9697  -14.7236   11.9806 H   0  0  0  0  0  0  0  0  0  0  0  0
    8.4220  -15.2699   14.3577 H   0  0  0  0  0  0  0  0  0  0  0  0
    7.0777  -17.0189   15.5162 H   0  0  0  0  0  0  0  0  0  0  0  0
    4.8729  -18.8495   15.0380 H   0  0  0  0  0  0  0  0  0  0  0  0
  1  2  1  0
  2  3  1  0
  2  4  1  0
  4  5  1  0
  5  6  1  0
  6  7  1  0
  7  8  1  0
  8  9  1  0
  9 10  1  0
 10 11  1  0
 11 12  1  0
 12 13  1  0
 13 14  1  0
 14 15  2  0
 14 16  1  0
 16 17  2  0
 17 18  1  0
 18 19  2  0
 19 20  1  0
 20 21  2  0
 21 22  1  0
 22 23  2  0
 23 24  1  0
 12  7  1  0
 24 16  1  0
 23 18  1  0
  1 25  1  0
  1 26  1  0
  1 27  1  0
  3 28  1  0
  3 29  1  0
  3 30  1  0
  4 31  1  0
  4 32  1  0
  5 33  1  0
  5 34  1  0
  7 35  1  0
  8 36  1  0
  8 37  1  0
  9 38  1  0
  9 39  1  0
 11 40  1  0
 11 41  1  0
 12 42  1  0
 13 43  1  0
 17 44  1  0
 19 45  1  0
 20 46  1  0
 21 47  1  0
 22 48  1  0
 24 49  1  0
M  END
>  <Energy>  (626) 
94.79256160393507

>  <compound_id>  (626) 
69192

>  <target_id>  (626) 
1

>  <reference_id>  (626) 
93

>  <inspiration_ids>  (626) 
[112, 93]

>  <energy_score>  (626) 
2.875338762860622

>  <distance_score>  (626) 
14.754022735892804

>  <path>  (626) 
/opt/xchem-fragalysis-2/maxwin/BulkDock/SCRATCH/511020/C69192-P93/C69192-P93.minimised.mol

>  <scratch_subdir>  (626) 
/opt/xchem-fragalysis-2/maxwin/BulkDock/SCRATCH/511020/C69192-P93

>  <fragmenstein_runtime>  (626) 
30.231327772140503

>  <fragmenstein_outcome>  (626) 
too moved

>  <fragmenstein_mode>  (626) 
expansion

>  <fragmenstein_error>  (626) 


$$$$
C74517-P112
     RDKit          3D

 55 58  0  0  0  0  0  0  0  0999 V2000
   -5.5666  -16.9932    9.7046 O   0  0  0  0  0  0  0  0  0  0  0  0
   -4.6806  -17.7256    9.7303 C   0  0  0  0  0  0  0  0  0  0  0  0
   -4.6211  -19.1603   10.0629 N   0  0  0  0  0  0  0  0  0  0  0  0
   -5.6473  -20.0655   10.5655 C   0  0  0  0  0  0  0  0  0  0  0  0
   -5.8462  -20.6354   12.0341 C   0  0  0  0  0  0  0  0  0  0  0  0
   -6.9398  -21.9586   12.3546 C   0  0  0  0  0  0  0  0  0  0  0  0
   -6.4110  -23.4099   11.7883 C   0  0  0  0  0  0  0  0  0  0  0  0
   -7.4214  -24.6004   11.6094 C   0  0  0  0  0  0  0  0  0  0  0  0
   -8.8059  -24.2543   11.7378 O   0  0  0  0  0  0  0  0  0  0  0  0
   -9.1983  -23.4984   12.8712 C   0  0  0  0  0  0  0  0  0  0  0  0
   -8.3417  -22.2118   13.1193 C   0  0  0  0  0  0  0  0  0  0  0  0
   -3.1198  -17.5344    9.5570 N   0  0  0  0  0  0  0  0  0  0  0  0
   -2.3928  -16.0632    9.1348 C   0  0  0  0  0  0  0  0  0  0  0  0
   -0.6507  -15.6879   10.3815 C   0  0  0  0  0  0  0  0  0  0  0  0
   -0.4680  -14.1962   11.3738 C   0  0  0  0  0  0  0  0  0  0  0  0
    0.2586  -12.3397   11.4499 C   0  0  0  0  0  0  0  0  0  0  0  0
   -0.4574  -11.1155   11.6407 C   0  0  0  0  0  0  0  0  0  0  0  0
    0.0940   -9.8474   11.5421 N   0  0  0  0  0  0  0  0  0  0  0  0
    1.4050   -9.8528   11.2797 C   0  0  0  0  0  0  0  0  0  0  0  0
    2.2586   -8.7373   11.1082 C   0  0  0  0  0  0  0  0  0  0  0  0
    3.4289   -8.9078   10.4012 C   0  0  0  0  0  0  0  0  0  0  0  0
    3.6744  -10.1519    9.8679 C   0  0  0  0  0  0  0  0  0  0  0  0
    2.8890  -11.2836   10.2179 C   0  0  0  0  0  0  0  0  0  0  0  0
    1.6652  -11.2050   11.0528 C   0  0  0  0  0  0  0  0  0  0  0  0
   -1.9943  -14.9044   10.7638 C   0  0  0  0  0  0  0  0  0  0  0  0
   -2.2353  -16.4339    9.4188 C   0  0  0  0  0  0  0  0  0  0  0  0
   -3.6814  -19.4564   10.0614 H   0  0  0  0  0  0  0  0  0  0  0  0
   -5.2868  -21.0005   10.1213 H   0  0  0  0  0  0  0  0  0  0  0  0
   -6.6004  -19.6040   10.4141 H   0  0  0  0  0  0  0  0  0  0  0  0
   -6.2468  -19.7469   12.4982 H   0  0  0  0  0  0  0  0  0  0  0  0
   -4.8463  -20.8370   12.4099 H   0  0  0  0  0  0  0  0  0  0  0  0
   -7.5661  -21.3122   11.7434 H   0  0  0  0  0  0  0  0  0  0  0  0
   -5.8522  -23.2586   10.8527 H   0  0  0  0  0  0  0  0  0  0  0  0
   -5.6352  -23.8713   12.3861 H   0  0  0  0  0  0  0  0  0  0  0  0
   -7.1945  -25.4660   12.2245 H   0  0  0  0  0  0  0  0  0  0  0  0
   -7.2979  -24.9885   10.5891 H   0  0  0  0  0  0  0  0  0  0  0  0
   -9.2987  -24.1507   13.7439 H   0  0  0  0  0  0  0  0  0  0  0  0
  -10.2344  -23.1864   12.6822 H   0  0  0  0  0  0  0  0  0  0  0  0
   -9.0713  -21.4892   12.7313 H   0  0  0  0  0  0  0  0  0  0  0  0
   -8.2475  -22.0622   14.1913 H   0  0  0  0  0  0  0  0  0  0  0  0
   -3.4097  -15.1954    9.2086 H   0  0  0  0  0  0  0  0  0  0  0  0
   -2.4140  -16.0479    7.7676 H   0  0  0  0  0  0  0  0  0  0  0  0
   -0.4735  -16.4814   11.1400 H   0  0  0  0  0  0  0  0  0  0  0  0
    0.3097  -15.9885    9.8689 H   0  0  0  0  0  0  0  0  0  0  0  0
   -0.1703  -14.5481   12.3457 H   0  0  0  0  0  0  0  0  0  0  0  0
   -1.4870  -10.8860   11.7027 H   0  0  0  0  0  0  0  0  0  0  0  0
   -0.4508   -9.0049   11.6544 H   0  0  0  0  0  0  0  0  0  0  0  0
    1.9359   -7.7410   11.3968 H   0  0  0  0  0  0  0  0  0  0  0  0
    4.0645   -8.0611   10.1641 H   0  0  0  0  0  0  0  0  0  0  0  0
    4.4712  -10.2679    9.1394 H   0  0  0  0  0  0  0  0  0  0  0  0
    3.1357  -12.2154    9.7159 H   0  0  0  0  0  0  0  0  0  0  0  0
   -2.1001  -14.1521   10.0237 H   0  0  0  0  0  0  0  0  0  0  0  0
   -2.8725  -14.9029   11.4057 H   0  0  0  0  0  0  0  0  0  0  0  0
   -1.3040  -17.0634    8.4471 H   0  0  0  0  0  0  0  0  0  0  0  0
   -1.2879  -17.1940    9.7757 H   0  0  0  0  0  0  0  0  0  0  0  0
  1  2  2  0
  2  3  1  0
  3  4  1  0
  4  5  1  0
  5  6  1  0
  6  7  1  0
  7  8  1  0
  8  9  1  0
  9 10  1  0
 10 11  1  0
  2 12  1  0
 12 13  1  0
 13 14  1  0
 14 15  1  0
 15 16  1  0
 16 17  2  0
 17 18  1  0
 18 19  1  0
 19 20  2  0
 20 21  1  0
 21 22  2  0
 22 23  1  0
 23 24  2  0
 15 25  1  0
 25 26  1  0
 11  6  1  0
 26 12  1  0
 24 16  1  0
 24 19  1  0
  3 27  1  0
  4 28  1  0
  4 29  1  0
  5 30  1  0
  5 31  1  0
  6 32  1  0
  7 33  1  0
  7 34  1  0
  8 35  1  0
  8 36  1  0
 10 37  1  0
 10 38  1  0
 11 39  1  0
 11 40  1  0
 13 41  1  0
 13 42  1  0
 14 43  1  0
 14 44  1  0
 15 45  1  0
 17 46  1  0
 18 47  1  0
 20 48  1  0
 21 49  1  0
 22 50  1  0
 23 51  1  0
 25 52  1  0
 25 53  1  0
 26 54  1  0
 26 55  1  0
M  END
>  <Energy>  (627) 
1379.0051936974455

>  <compound_id>  (627) 
74517

>  <target_id>  (627) 
1

>  <reference_id>  (627) 
112

>  <inspiration_ids>  (627) 
[112, 93]

>  <energy_score>  (627) 
1383.4003125866243

>  <distance_score>  (627) 
12.62353426523787

>  <path>  (627) 
/opt/xchem-fragalysis-2/maxwin/BulkDock/SCRATCH/511020/C74517-P112/C74517-P112.minimised.mol

>  <scratch_subdir>  (627) 
/opt/xchem-fragalysis-2/maxwin/BulkDock/SCRATCH/511020/C74517-P112

>  <fragmenstein_runtime>  (627) 
23.232458114624023

>  <fragmenstein_outcome>  (627) 
too moved

>  <fragmenstein_mode>  (627) 
expansion

>  <fragmenstein_error>  (627) 


$$$$
C74517-P93
     RDKit          3D

 55 58  0  0  0  0  0  0  0  0999 V2000
   -3.5516  -19.9446   11.0244 O   0  0  0  0  0  0  0  0  0  0  0  0
   -3.1564  -20.1842   12.0423 C   0  0  0  0  0  0  0  0  0  0  0  0
   -4.3137  -20.9220   13.0310 N   0  0  0  0  0  0  0  0  0  0  0  0
   -6.2889  -21.3058   12.7986 C   0  0  0  0  0  0  0  0  0  0  0  0
   -7.6278  -22.5329   12.1766 C   0  0  0  0  0  0  0  0  0  0  0  0
   -9.1606  -22.7412   12.5159 C   0  0  0  0  0  0  0  0  0  0  0  0
   -9.8052  -23.6351   11.4049 C   0  0  0  0  0  0  0  0  0  0  0  0
  -11.2064  -24.0831   11.8064 C   0  0  0  0  0  0  0  0  0  0  0  0
  -11.2340  -24.9097   12.9591 O   0  0  0  0  0  0  0  0  0  0  0  0
  -10.1037  -24.7326   13.8067 C   0  0  0  0  0  0  0  0  0  0  0  0
   -9.5938  -23.2849   13.8690 C   0  0  0  0  0  0  0  0  0  0  0  0
   -1.2664  -19.6597   12.9778 N   0  0  0  0  0  0  0  0  0  0  0  0
    0.3601  -18.4971   12.4911 C   0  0  0  0  0  0  0  0  0  0  0  0
    0.4288  -16.2919   12.2828 C   0  0  0  0  0  0  0  0  0  0  0  0
    1.3855  -14.5616   13.0458 C   0  0  0  0  0  0  0  0  0  0  0  0
    2.3036  -13.2601   14.7285 C   0  0  0  0  0  0  0  0  0  0  0  0
    4.1788  -12.4755   14.6187 C   0  0  0  0  0  0  0  0  0  0  0  0
    4.4062  -11.0659   14.0609 N   0  0  0  0  0  0  0  0  0  0  0  0
    4.1714  -10.5504   15.2284 C   0  0  0  0  0  0  0  0  0  0  0  0
    4.7190   -9.3789   15.8177 C   0  0  0  0  0  0  0  0  0  0  0  0
    4.7591   -9.2611   17.1882 C   0  0  0  0  0  0  0  0  0  0  0  0
    4.4030  -10.3586   17.9216 C   0  0  0  0  0  0  0  0  0  0  0  0
    3.8613  -11.5074   17.2658 C   0  0  0  0  0  0  0  0  0  0  0  0
    3.4741  -11.8033   15.7042 C   0  0  0  0  0  0  0  0  0  0  0  0
    1.3461  -16.7015   12.4905 C   0  0  0  0  0  0  0  0  0  0  0  0
    0.0849  -18.3866   12.0072 C   0  0  0  0  0  0  0  0  0  0  0  0
   -3.8623  -21.1782   13.8605 H   0  0  0  0  0  0  0  0  0  0  0  0
   -6.6313  -20.3036   12.3900 H   0  0  0  0  0  0  0  0  0  0  0  0
   -6.9388  -21.3560   13.6701 H   0  0  0  0  0  0  0  0  0  0  0  0
   -7.1591  -23.4882   11.8920 H   0  0  0  0  0  0  0  0  0  0  0  0
   -7.9416  -22.0427   11.2539 H   0  0  0  0  0  0  0  0  0  0  0  0
   -9.6574  -21.7711   12.3843 H   0  0  0  0  0  0  0  0  0  0  0  0
   -9.8537  -23.0754   10.4634 H   0  0  0  0  0  0  0  0  0  0  0  0
   -9.1772  -24.5174   11.2291 H   0  0  0  0  0  0  0  0  0  0  0  0
  -11.6915  -24.6230   10.9878 H   0  0  0  0  0  0  0  0  0  0  0  0
  -11.8177  -23.2194   12.0520 H   0  0  0  0  0  0  0  0  0  0  0  0
   -9.3285  -25.4180   13.4535 H   0  0  0  0  0  0  0  0  0  0  0  0
  -10.4046  -25.0901   14.7898 H   0  0  0  0  0  0  0  0  0  0  0  0
  -10.4206  -22.6528   14.1525 H   0  0  0  0  0  0  0  0  0  0  0  0
   -8.8486  -23.1261   14.6454 H   0  0  0  0  0  0  0  0  0  0  0  0
    0.8169  -18.7134   13.6537 H   0  0  0  0  0  0  0  0  0  0  0  0
    1.5248  -19.2186   12.3603 H   0  0  0  0  0  0  0  0  0  0  0  0
    0.4921  -16.0812   11.0367 H   0  0  0  0  0  0  0  0  0  0  0  0
   -0.4722  -15.7381   11.9133 H   0  0  0  0  0  0  0  0  0  0  0  0
    0.4089  -14.0287   12.9949 H   0  0  0  0  0  0  0  0  0  0  0  0
    5.0682  -12.8836   14.1100 H   0  0  0  0  0  0  0  0  0  0  0  0
    5.1901  -10.8292   13.4685 H   0  0  0  0  0  0  0  0  0  0  0  0
    5.1710   -8.6158   15.1896 H   0  0  0  0  0  0  0  0  0  0  0  0
    5.1522   -8.3721   17.6677 H   0  0  0  0  0  0  0  0  0  0  0  0
    4.5299  -10.3707   19.0000 H   0  0  0  0  0  0  0  0  0  0  0  0
    3.6989  -12.3611   17.9392 H   0  0  0  0  0  0  0  0  0  0  0  0
    1.8846  -16.8566   11.3176 H   0  0  0  0  0  0  0  0  0  0  0  0
    2.3215  -17.2902   12.7467 H   0  0  0  0  0  0  0  0  0  0  0  0
    0.6276  -19.0387   10.9125 H   0  0  0  0  0  0  0  0  0  0  0  0
   -0.5069  -17.6806   11.2025 H   0  0  0  0  0  0  0  0  0  0  0  0
  1  2  2  0
  2  3  1  0
  3  4  1  0
  4  5  1  0
  5  6  1  0
  6  7  1  0
  7  8  1  0
  8  9  1  0
  9 10  1  0
 10 11  1  0
  2 12  1  0
 12 13  1  0
 13 14  1  0
 14 15  1  0
 15 16  1  0
 16 17  2  0
 17 18  1  0
 18 19  1  0
 19 20  2  0
 20 21  1  0
 21 22  2  0
 22 23  1  0
 23 24  2  0
 15 25  1  0
 25 26  1  0
 11  6  1  0
 26 12  1  0
 24 16  1  0
 24 19  1  0
  3 27  1  0
  4 28  1  0
  4 29  1  0
  5 30  1  0
  5 31  1  0
  6 32  1  0
  7 33  1  0
  7 34  1  0
  8 35  1  0
  8 36  1  0
 10 37  1  0
 10 38  1  0
 11 39  1  0
 11 40  1  0
 13 41  1  0
 13 42  1  0
 14 43  1  0
 14 44  1  0
 15 45  1  0
 17 46  1  0
 18 47  1  0
 20 48  1  0
 21 49  1  0
 22 50  1  0
 23 51  1  0
 25 52  1  0
 25 53  1  0
 26 54  1  0
 26 55  1  0
M  END
>  <Energy>  (628) 
2962.3974966272426

>  <compound_id>  (628) 
74517

>  <target_id>  (628) 
1

>  <reference_id>  (628) 
93

>  <inspiration_ids>  (628) 
[112, 93]

>  <energy_score>  (628) 
2966.7926155164487

>  <distance_score>  (628) 
11.044272130963895

>  <path>  (628) 
/opt/xchem-fragalysis-2/maxwin/BulkDock/SCRATCH/511020/C74517-P93/C74517-P93.minimised.mol

>  <scratch_subdir>  (628) 
/opt/xchem-fragalysis-2/maxwin/BulkDock/SCRATCH/511020/C74517-P93

>  <fragmenstein_runtime>  (628) 
37.11376142501831

>  <fragmenstein_outcome>  (628) 
too moved

>  <fragmenstein_mode>  (628) 
expansion

>  <fragmenstein_error>  (628) 


$$$$
C74518-P112
     RDKit          3D

 43 45  0  0  0  0  0  0  0  0999 V2000
   -3.0811  -16.1783   15.7124 O   0  0  0  0  0  0  0  0  0  0  0  0
   -3.0506  -15.5225   14.7895 C   0  0  0  0  0  0  0  0  0  0  0  0
   -1.4368  -14.1040   14.0623 C   0  0  0  0  0  0  0  0  0  0  0  0
    0.2214  -13.0992   13.1761 C   0  0  0  0  0  0  0  0  0  0  0  0
    1.5382  -11.5697   13.7178 C   0  0  0  0  0  0  0  0  0  0  0  0
    3.4025  -10.5105   13.8369 C   0  0  0  0  0  0  0  0  0  0  0  0
    4.3232  -11.1027   14.7389 C   0  0  0  0  0  0  0  0  0  0  0  0
    5.3716  -11.5180   13.8928 N   0  0  0  0  0  0  0  0  0  0  0  0
    6.0987  -10.3891   13.9051 C   0  0  0  0  0  0  0  0  0  0  0  0
    7.8546  -10.1647   14.4435 C   0  0  0  0  0  0  0  0  0  0  0  0
    8.1246   -9.2489   15.3493 C   0  0  0  0  0  0  0  0  0  0  0  0
    6.9117   -7.8905   14.6347 C   0  0  0  0  0  0  0  0  0  0  0  0
    5.3779   -8.0392   13.9216 C   0  0  0  0  0  0  0  0  0  0  0  0
    4.7996   -9.5410   13.8672 C   0  0  0  0  0  0  0  0  0  0  0  0
   -4.5873  -15.8611   13.7535 N   0  0  0  0  0  0  0  0  0  0  0  0
   -5.9972  -16.8493   14.0266 C   0  0  0  0  0  0  0  0  0  0  0  0
   -5.9945  -18.3612   14.3908 C   0  0  0  0  0  0  0  0  0  0  0  0
   -7.4131  -18.8431   14.7502 C   0  0  0  0  0  0  0  0  0  0  0  0
   -8.4544  -18.4653   13.7046 C   0  0  0  0  0  0  0  0  0  0  0  0
   -7.8885  -17.7216   12.6301 O   0  0  0  0  0  0  0  0  0  0  0  0
   -7.1796  -16.5450   13.0548 C   0  0  0  0  0  0  0  0  0  0  0  0
   -1.0179  -14.4825   12.9539 H   0  0  0  0  0  0  0  0  0  0  0  0
   -1.4121  -13.0496   13.9810 H   0  0  0  0  0  0  0  0  0  0  0  0
    0.8004  -13.8328   12.6037 H   0  0  0  0  0  0  0  0  0  0  0  0
   -0.2781  -12.5362   12.3703 H   0  0  0  0  0  0  0  0  0  0  0  0
    1.3551  -11.1905   12.6483 H   0  0  0  0  0  0  0  0  0  0  0  0
    1.7692  -12.3522   14.4390 H   0  0  0  0  0  0  0  0  0  0  0  0
    4.0530  -11.5808   15.6513 H   0  0  0  0  0  0  0  0  0  0  0  0
    5.8874  -12.3633   14.0347 H   0  0  0  0  0  0  0  0  0  0  0  0
    8.6411  -10.9329   14.2210 H   0  0  0  0  0  0  0  0  0  0  0  0
    9.1595   -9.1076   15.6839 H   0  0  0  0  0  0  0  0  0  0  0  0
    7.4240   -6.9524   14.6949 H   0  0  0  0  0  0  0  0  0  0  0  0
    4.6077   -7.3776   13.6351 H   0  0  0  0  0  0  0  0  0  0  0  0
   -4.5910  -15.1602   12.9592 H   0  0  0  0  0  0  0  0  0  0  0  0
   -6.3156  -16.5130   15.0241 H   0  0  0  0  0  0  0  0  0  0  0  0
   -5.3641  -18.5140   15.2693 H   0  0  0  0  0  0  0  0  0  0  0  0
   -5.6644  -19.0088   13.5753 H   0  0  0  0  0  0  0  0  0  0  0  0
   -7.7101  -18.4141   15.7158 H   0  0  0  0  0  0  0  0  0  0  0  0
   -7.4102  -19.9291   14.9024 H   0  0  0  0  0  0  0  0  0  0  0  0
   -9.2685  -17.8862   14.1555 H   0  0  0  0  0  0  0  0  0  0  0  0
   -8.8983  -19.3717   13.2808 H   0  0  0  0  0  0  0  0  0  0  0  0
   -7.8937  -15.8600   13.5281 H   0  0  0  0  0  0  0  0  0  0  0  0
   -6.8179  -16.0376   12.1579 H   0  0  0  0  0  0  0  0  0  0  0  0
  1  2  2  0
  2  3  1  0
  3  4  1  0
  4  5  1  0
  5  6  1  0
  6  7  2  0
  7  8  1  0
  8  9  1  0
  9 10  2  0
 10 11  1  0
 11 12  2  0
 12 13  1  0
 13 14  2  0
  2 15  1  0
 15 16  1  0
 16 17  1  0
 17 18  1  0
 18 19  1  0
 19 20  1  0
 20 21  1  0
 14  6  1  0
 21 16  1  0
 14  9  1  0
  3 22  1  0
  3 23  1  0
  4 24  1  0
  4 25  1  0
  5 26  1  0
  5 27  1  0
  7 28  1  0
  8 29  1  0
 10 30  1  0
 11 31  1  0
 12 32  1  0
 13 33  1  0
 15 34  1  0
 16 35  1  0
 17 36  1  0
 17 37  1  0
 18 38  1  0
 18 39  1  0
 19 40  1  0
 19 41  1  0
 21 42  1  0
 21 43  1  0
M  END
>  <Energy>  (629) 
1220.7060725125391

>  <compound_id>  (629) 
74518

>  <target_id>  (629) 
1

>  <reference_id>  (629) 
112

>  <inspiration_ids>  (629) 
[112, 93]

>  <energy_score>  (629) 
1176.6780147086117

>  <distance_score>  (629) 
11.005634628220902

>  <path>  (629) 
/opt/xchem-fragalysis-2/maxwin/BulkDock/SCRATCH/511020/C74518-P112/C74518-P112.minimised.mol

>  <scratch_subdir>  (629) 
/opt/xchem-fragalysis-2/maxwin/BulkDock/SCRATCH/511020/C74518-P112

>  <fragmenstein_runtime>  (629) 
15.091499328613281

>  <fragmenstein_outcome>  (629) 
too moved

>  <fragmenstein_mode>  (629) 
expansion

>  <fragmenstein_error>  (629) 


$$$$
C74518-P93
     RDKit          3D

 43 45  0  0  0  0  0  0  0  0999 V2000
    1.7934   -7.7245   20.2835 O   0  0  0  0  0  0  0  0  0  0  0  0
    1.4333   -7.6961   19.1301 C   0  0  0  0  0  0  0  0  0  0  0  0
    2.5891   -7.1094   18.0099 C   0  0  0  0  0  0  0  0  0  0  0  0
    4.2076   -6.9079   18.2719 C   0  0  0  0  0  0  0  0  0  0  0  0
    5.2501   -6.1391   17.1075 C   0  0  0  0  0  0  0  0  0  0  0  0
    6.5198   -6.6025   15.9165 C   0  0  0  0  0  0  0  0  0  0  0  0
    6.7228   -7.6203   14.7989 C   0  0  0  0  0  0  0  0  0  0  0  0
    8.0714   -7.9844   14.3699 N   0  0  0  0  0  0  0  0  0  0  0  0
    9.0033   -7.1944   15.0397 C   0  0  0  0  0  0  0  0  0  0  0  0
   10.7559   -6.4541   15.2514 C   0  0  0  0  0  0  0  0  0  0  0  0
   11.0799   -4.7237   15.4153 C   0  0  0  0  0  0  0  0  0  0  0  0
   10.1296   -3.7203   15.1521 C   0  0  0  0  0  0  0  0  0  0  0  0
    8.6084   -4.2622   15.2372 C   0  0  0  0  0  0  0  0  0  0  0  0
    7.7569   -5.9654   15.4952 C   0  0  0  0  0  0  0  0  0  0  0  0
    0.0668   -8.0059   18.5075 N   0  0  0  0  0  0  0  0  0  0  0  0
   -1.3009   -8.5441   19.1770 C   0  0  0  0  0  0  0  0  0  0  0  0
   -2.0669   -9.7267   18.4129 C   0  0  0  0  0  0  0  0  0  0  0  0
   -3.4150  -10.1580   18.9915 C   0  0  0  0  0  0  0  0  0  0  0  0
   -4.3140   -8.9532   19.0453 C   0  0  0  0  0  0  0  0  0  0  0  0
   -3.6729   -7.9511   19.8347 O   0  0  0  0  0  0  0  0  0  0  0  0
   -2.4104   -7.4676   19.3138 C   0  0  0  0  0  0  0  0  0  0  0  0
    2.2939   -6.0659   17.8840 H   0  0  0  0  0  0  0  0  0  0  0  0
    2.4324   -7.6606   17.0844 H   0  0  0  0  0  0  0  0  0  0  0  0
    4.2342   -6.2086   19.1224 H   0  0  0  0  0  0  0  0  0  0  0  0
    4.6444   -7.8219   18.6876 H   0  0  0  0  0  0  0  0  0  0  0  0
    5.9719   -5.7677   17.8480 H   0  0  0  0  0  0  0  0  0  0  0  0
    4.6609   -5.2959   16.7517 H   0  0  0  0  0  0  0  0  0  0  0  0
    6.0201   -8.0103   14.0609 H   0  0  0  0  0  0  0  0  0  0  0  0
    8.1581   -8.7922   13.7841 H   0  0  0  0  0  0  0  0  0  0  0  0
   11.5962   -6.8569   15.8607 H   0  0  0  0  0  0  0  0  0  0  0  0
   12.0763   -4.4586   15.7819 H   0  0  0  0  0  0  0  0  0  0  0  0
   10.3324   -2.6568   15.2053 H   0  0  0  0  0  0  0  0  0  0  0  0
    8.8803   -4.9895   14.4709 H   0  0  0  0  0  0  0  0  0  0  0  0
    0.1404   -7.9618   17.5021 H   0  0  0  0  0  0  0  0  0  0  0  0
   -1.0410   -8.8635   20.1932 H   0  0  0  0  0  0  0  0  0  0  0  0
   -1.5210  -10.6552   18.3128 H   0  0  0  0  0  0  0  0  0  0  0  0
   -2.2613   -9.3777   17.4087 H   0  0  0  0  0  0  0  0  0  0  0  0
   -3.8654  -10.9421   18.3756 H   0  0  0  0  0  0  0  0  0  0  0  0
   -3.2556  -10.5622   19.9979 H   0  0  0  0  0  0  0  0  0  0  0  0
   -5.2654   -9.2039   19.5239 H   0  0  0  0  0  0  0  0  0  0  0  0
   -4.5302   -8.5508   18.0492 H   0  0  0  0  0  0  0  0  0  0  0  0
   -2.0622   -6.6846   19.9963 H   0  0  0  0  0  0  0  0  0  0  0  0
   -2.6014   -6.9784   18.3578 H   0  0  0  0  0  0  0  0  0  0  0  0
  1  2  2  0
  2  3  1  0
  3  4  1  0
  4  5  1  0
  5  6  1  0
  6  7  2  0
  7  8  1  0
  8  9  1  0
  9 10  2  0
 10 11  1  0
 11 12  2  0
 12 13  1  0
 13 14  2  0
  2 15  1  0
 15 16  1  0
 16 17  1  0
 17 18  1  0
 18 19  1  0
 19 20  1  0
 20 21  1  0
 14  6  1  0
 21 16  1  0
 14  9  1  0
  3 22  1  0
  3 23  1  0
  4 24  1  0
  4 25  1  0
  5 26  1  0
  5 27  1  0
  7 28  1  0
  8 29  1  0
 10 30  1  0
 11 31  1  0
 12 32  1  0
 13 33  1  0
 15 34  1  0
 16 35  1  0
 17 36  1  0
 17 37  1  0
 18 38  1  0
 18 39  1  0
 19 40  1  0
 19 41  1  0
 21 42  1  0
 21 43  1  0
M  END
>  <Energy>  (630) 
525.02757416795851

>  <compound_id>  (630) 
74518

>  <target_id>  (630) 
1

>  <reference_id>  (630) 
93

>  <inspiration_ids>  (630) 
[112, 93]

>  <energy_score>  (630) 
480.9995163640273

>  <distance_score>  (630) 
14.178692221327287

>  <path>  (630) 
/opt/xchem-fragalysis-2/maxwin/BulkDock/SCRATCH/511020/C74518-P93/C74518-P93.minimised.mol

>  <scratch_subdir>  (630) 
/opt/xchem-fragalysis-2/maxwin/BulkDock/SCRATCH/511020/C74518-P93

>  <fragmenstein_runtime>  (630) 
14.668410301208496

>  <fragmenstein_outcome>  (630) 
too moved

>  <fragmenstein_mode>  (630) 
expansion

>  <fragmenstein_error>  (630) 


$$$$
C74519-P112
     RDKit          3D

 50 52  0  0  0  0  0  0  0  0999 V2000
   -6.2283  -19.1577   12.2455 O   0  0  0  0  0  0  0  0  0  0  0  0
   -5.4094  -19.3664   13.1422 C   0  0  0  0  0  0  0  0  0  0  0  0
   -4.5211  -20.3211   12.8405 O   0  0  0  0  0  0  0  0  0  0  0  0
   -5.2090  -18.4564   14.7212 C   0  0  0  0  0  0  0  0  0  0  0  0
   -3.9596  -17.5152   14.9626 O   0  0  0  0  0  0  0  0  0  0  0  0
   -3.9834  -16.1729   14.3137 C   0  0  0  0  0  0  0  0  0  0  0  0
   -5.8525  -16.3859   13.7002 C   0  0  0  0  0  0  0  0  0  0  0  0
   -6.3993  -15.5663   12.5840 C   0  0  0  0  0  0  0  0  0  0  0  0
   -5.7143  -14.4061   12.7980 O   0  0  0  0  0  0  0  0  0  0  0  0
   -4.2210  -14.4150   12.7897 C   0  0  0  0  0  0  0  0  0  0  0  0
   -3.1728  -14.1975   13.8413 C   0  0  0  0  0  0  0  0  0  0  0  0
   -1.1749  -13.4648   13.8594 N   0  0  0  0  0  0  0  0  0  0  0  0
   -0.2270  -12.0998   12.8314 C   0  0  0  0  0  0  0  0  0  0  0  0
   -0.7770  -11.5534   11.8921 O   0  0  0  0  0  0  0  0  0  0  0  0
    1.7071  -11.1575   13.1789 C   0  0  0  0  0  0  0  0  0  0  0  0
    3.6224  -10.1767   13.7603 C   0  0  0  0  0  0  0  0  0  0  0  0
    4.9703   -8.5102   13.5983 C   0  0  0  0  0  0  0  0  0  0  0  0
    6.5888   -7.4466   14.3749 C   0  0  0  0  0  0  0  0  0  0  0  0
    6.7142   -6.6248   15.4487 C   0  0  0  0  0  0  0  0  0  0  0  0
    8.1548   -6.7668   14.5211 N   0  0  0  0  0  0  0  0  0  0  0  0
    9.6148   -6.9241   15.1982 C   0  0  0  0  0  0  0  0  0  0  0  0
   11.0299   -5.7299   15.4078 C   0  0  0  0  0  0  0  0  0  0  0  0
   11.2865   -4.3511   15.1730 C   0  0  0  0  0  0  0  0  0  0  0  0
   10.1778   -3.6035   14.9031 C   0  0  0  0  0  0  0  0  0  0  0  0
    8.7629   -4.2737   14.8053 C   0  0  0  0  0  0  0  0  0  0  0  0
    8.0882   -6.0777   14.8499 C   0  0  0  0  0  0  0  0  0  0  0  0
   -3.8821  -20.4798   13.5772 H   0  0  0  0  0  0  0  0  0  0  0  0
   -6.0962  -17.9885   15.1261 H   0  0  0  0  0  0  0  0  0  0  0  0
   -5.0971  -19.1821   15.5299 H   0  0  0  0  0  0  0  0  0  0  0  0
   -3.9652  -16.0086   15.4396 H   0  0  0  0  0  0  0  0  0  0  0  0
   -6.5491  -16.4136   14.5645 H   0  0  0  0  0  0  0  0  0  0  0  0
   -6.1108  -17.3244   13.2614 H   0  0  0  0  0  0  0  0  0  0  0  0
   -6.2823  -15.9591   11.5710 H   0  0  0  0  0  0  0  0  0  0  0  0
   -7.4728  -15.3919   12.7181 H   0  0  0  0  0  0  0  0  0  0  0  0
   -4.2843  -13.3744   12.7208 H   0  0  0  0  0  0  0  0  0  0  0  0
   -3.6599  -14.8675   11.9649 H   0  0  0  0  0  0  0  0  0  0  0  0
   -2.8171  -14.6917   14.8973 H   0  0  0  0  0  0  0  0  0  0  0  0
   -0.6218  -13.7284   14.6223 H   0  0  0  0  0  0  0  0  0  0  0  0
    1.6727  -10.8741   12.0702 H   0  0  0  0  0  0  0  0  0  0  0  0
    1.5746  -11.9911   13.9252 H   0  0  0  0  0  0  0  0  0  0  0  0
    4.5408  -10.7790   13.5679 H   0  0  0  0  0  0  0  0  0  0  0  0
    3.6983  -10.4824   14.8088 H   0  0  0  0  0  0  0  0  0  0  0  0
    5.5785   -8.9297   12.7751 H   0  0  0  0  0  0  0  0  0  0  0  0
    4.3995   -7.7033   13.1422 H   0  0  0  0  0  0  0  0  0  0  0  0
    6.5074   -6.1046   16.3912 H   0  0  0  0  0  0  0  0  0  0  0  0
    8.1566   -7.1850   13.5327 H   0  0  0  0  0  0  0  0  0  0  0  0
   11.8714   -6.1797   15.9864 H   0  0  0  0  0  0  0  0  0  0  0  0
   12.2562   -3.9159   15.3776 H   0  0  0  0  0  0  0  0  0  0  0  0
   10.2297   -2.5167   14.8497 H   0  0  0  0  0  0  0  0  0  0  0  0
    8.1195   -3.3591   15.0200 H   0  0  0  0  0  0  0  0  0  0  0  0
  1  2  2  0
  2  3  1  0
  2  4  1  0
  4  5  1  0
  5  6  1  0
  6  7  1  0
  7  8  1  0
  8  9  1  0
  9 10  1  0
 10 11  1  0
 11 12  1  0
 12 13  1  0
 13 14  2  0
 13 15  1  0
 15 16  1  0
 16 17  1  0
 17 18  1  0
 18 19  2  0
 19 20  1  0
 20 21  1  0
 21 22  2  0
 22 23  1  0
 23 24  2  0
 24 25  1  0
 25 26  2  0
 11  6  1  0
 26 18  1  0
 26 21  1  0
  3 27  1  0
  4 28  1  0
  4 29  1  0
  6 30  1  0
  7 31  1  0
  7 32  1  0
  8 33  1  0
  8 34  1  0
 10 35  1  0
 10 36  1  0
 11 37  1  0
 12 38  1  0
 15 39  1  0
 15 40  1  0
 16 41  1  0
 16 42  1  0
 17 43  1  0
 17 44  1  0
 19 45  1  0
 20 46  1  0
 22 47  1  0
 23 48  1  0
 24 49  1  0
 25 50  1  0
M  END
>  <Energy>  (631) 
2103.4496233867949

>  <compound_id>  (631) 
74519

>  <target_id>  (631) 
1

>  <reference_id>  (631) 
112

>  <inspiration_ids>  (631) 
[112, 93]

>  <energy_score>  (631) 
2008.4580486640907

>  <distance_score>  (631) 
9.753538754402424

>  <path>  (631) 
/opt/xchem-fragalysis-2/maxwin/BulkDock/SCRATCH/511020/C74519-P112/C74519-P112.minimised.mol

>  <scratch_subdir>  (631) 
/opt/xchem-fragalysis-2/maxwin/BulkDock/SCRATCH/511020/C74519-P112

>  <fragmenstein_runtime>  (631) 
26.218791484832764

>  <fragmenstein_outcome>  (631) 
too moved

>  <fragmenstein_mode>  (631) 
expansion

>  <fragmenstein_error>  (631) 


$$$$
C74519-P93
     RDKit          3D

 50 52  0  0  0  0  0  0  0  0999 V2000
   -6.0960  -17.2777    9.5459 O   0  0  0  0  0  0  0  0  0  0  0  0
   -5.7975  -16.1793    9.1009 C   0  0  0  0  0  0  0  0  0  0  0  0
   -6.7645  -15.3556    8.6371 O   0  0  0  0  0  0  0  0  0  0  0  0
   -4.3985  -15.6135    8.8989 C   0  0  0  0  0  0  0  0  0  0  0  0
   -3.5705  -15.7308   10.0710 O   0  0  0  0  0  0  0  0  0  0  0  0
   -2.1484  -15.4736    9.9300 C   0  0  0  0  0  0  0  0  0  0  0  0
   -1.8437  -16.8533    9.0039 C   0  0  0  0  0  0  0  0  0  0  0  0
   -0.5260  -17.5505    9.2276 C   0  0  0  0  0  0  0  0  0  0  0  0
    0.4124  -16.6087    9.7126 O   0  0  0  0  0  0  0  0  0  0  0  0
    0.1108  -16.1767   11.0295 C   0  0  0  0  0  0  0  0  0  0  0  0
   -0.8739  -14.8645   11.2972 C   0  0  0  0  0  0  0  0  0  0  0  0
    0.5504  -13.7440   11.7296 N   0  0  0  0  0  0  0  0  0  0  0  0
    0.7487  -12.0223   11.5762 C   0  0  0  0  0  0  0  0  0  0  0  0
   -0.1061  -11.2490   11.2281 O   0  0  0  0  0  0  0  0  0  0  0  0
    2.5405  -11.0434   11.7720 C   0  0  0  0  0  0  0  0  0  0  0  0
    4.0891  -10.4833   13.0786 C   0  0  0  0  0  0  0  0  0  0  0  0
    6.0409  -10.3970   13.6587 C   0  0  0  0  0  0  0  0  0  0  0  0
    7.5930   -9.0768   13.8961 C   0  0  0  0  0  0  0  0  0  0  0  0
    8.6677   -9.8227   14.5760 C   0  0  0  0  0  0  0  0  0  0  0  0
    9.6885   -9.1901   15.2344 N   0  0  0  0  0  0  0  0  0  0  0  0
    9.6943   -7.6500   15.1380 C   0  0  0  0  0  0  0  0  0  0  0  0
   11.0492   -6.4495   15.6173 C   0  0  0  0  0  0  0  0  0  0  0  0
   11.1237   -4.8304   15.5225 C   0  0  0  0  0  0  0  0  0  0  0  0
   10.0049   -4.3823   14.8054 C   0  0  0  0  0  0  0  0  0  0  0  0
    8.6308   -5.5933   14.4186 C   0  0  0  0  0  0  0  0  0  0  0  0
    8.4117   -7.4185   14.3396 C   0  0  0  0  0  0  0  0  0  0  0  0
   -7.5930  -15.8049    8.9053 H   0  0  0  0  0  0  0  0  0  0  0  0
   -3.9902  -16.1483    8.0379 H   0  0  0  0  0  0  0  0  0  0  0  0
   -4.4771  -14.5621    8.6059 H   0  0  0  0  0  0  0  0  0  0  0  0
   -2.3803  -14.6028    9.3718 H   0  0  0  0  0  0  0  0  0  0  0  0
   -1.9189  -16.5827    7.9392 H   0  0  0  0  0  0  0  0  0  0  0  0
   -2.6405  -17.6065    9.1082 H   0  0  0  0  0  0  0  0  0  0  0  0
   -0.1491  -17.9419    8.2763 H   0  0  0  0  0  0  0  0  0  0  0  0
   -0.5961  -18.4092    9.9003 H   0  0  0  0  0  0  0  0  0  0  0  0
    1.0591  -15.9582   11.4558 H   0  0  0  0  0  0  0  0  0  0  0  0
   -0.1236  -17.0777   11.5742 H   0  0  0  0  0  0  0  0  0  0  0  0
   -0.8594  -14.0866   10.6281 H   0  0  0  0  0  0  0  0  0  0  0  0
    1.3593  -14.1279   12.1074 H   0  0  0  0  0  0  0  0  0  0  0  0
    3.0953  -11.5948   10.9620 H   0  0  0  0  0  0  0  0  0  0  0  0
    2.3825  -10.1704   11.1004 H   0  0  0  0  0  0  0  0  0  0  0  0
    3.7538  -10.8332   14.0501 H   0  0  0  0  0  0  0  0  0  0  0  0
    4.7563  -11.0820   12.4500 H   0  0  0  0  0  0  0  0  0  0  0  0
    5.5908  -10.6632   14.5702 H   0  0  0  0  0  0  0  0  0  0  0  0
    6.4008  -11.3838   13.4152 H   0  0  0  0  0  0  0  0  0  0  0  0
    8.7720  -10.8799   14.7259 H   0  0  0  0  0  0  0  0  0  0  0  0
   10.4236   -9.6875   15.7216 H   0  0  0  0  0  0  0  0  0  0  0  0
   11.9760   -6.8675   16.0657 H   0  0  0  0  0  0  0  0  0  0  0  0
   11.9444   -4.2554   15.9174 H   0  0  0  0  0  0  0  0  0  0  0  0
    9.7992   -3.3092   14.7076 H   0  0  0  0  0  0  0  0  0  0  0  0
    8.4130   -5.8268   13.4430 H   0  0  0  0  0  0  0  0  0  0  0  0
  1  2  2  0
  2  3  1  0
  2  4  1  0
  4  5  1  0
  5  6  1  0
  6  7  1  0
  7  8  1  0
  8  9  1  0
  9 10  1  0
 10 11  1  0
 11 12  1  0
 12 13  1  0
 13 14  2  0
 13 15  1  0
 15 16  1  0
 16 17  1  0
 17 18  1  0
 18 19  2  0
 19 20  1  0
 20 21  1  0
 21 22  2  0
 22 23  1  0
 23 24  2  0
 24 25  1  0
 25 26  2  0
 11  6  1  0
 26 18  1  0
 26 21  1  0
  3 27  1  0
  4 28  1  0
  4 29  1  0
  6 30  1  0
  7 31  1  0
  7 32  1  0
  8 33  1  0
  8 34  1  0
 10 35  1  0
 10 36  1  0
 11 37  1  0
 12 38  1  0
 15 39  1  0
 15 40  1  0
 16 41  1  0
 16 42  1  0
 17 43  1  0
 17 44  1  0
 19 45  1  0
 20 46  1  0
 22 47  1  0
 23 48  1  0
 24 49  1  0
 25 50  1  0
M  END
>  <Energy>  (632) 
1091.5907698418732

>  <compound_id>  (632) 
74519

>  <target_id>  (632) 
1

>  <reference_id>  (632) 
93

>  <inspiration_ids>  (632) 
[112, 93]

>  <energy_score>  (632) 
996.599195119171

>  <distance_score>  (632) 
11.812927404533333

>  <path>  (632) 
/opt/xchem-fragalysis-2/maxwin/BulkDock/SCRATCH/511020/C74519-P93/C74519-P93.minimised.mol

>  <scratch_subdir>  (632) 
/opt/xchem-fragalysis-2/maxwin/BulkDock/SCRATCH/511020/C74519-P93

>  <fragmenstein_runtime>  (632) 
27.876333713531494

>  <fragmenstein_outcome>  (632) 
too moved

>  <fragmenstein_mode>  (632) 
expansion

>  <fragmenstein_error>  (632) 


$$$$
C74520-P112
     RDKit          3D

 51 53  0  0  0  0  0  0  0  0999 V2000
   -8.2630  -14.5138   15.9342 N   0  0  0  0  0  0  0  0  0  0  0  0
   -7.4910  -14.6167   17.1607 C   0  0  0  0  0  0  0  0  0  0  0  0
   -7.4352  -13.8879   18.1117 O   0  0  0  0  0  0  0  0  0  0  0  0
   -6.7041  -15.9616   17.1759 C   0  0  0  0  0  0  0  0  0  0  0  0
   -5.7334  -16.2335   16.1563 O   0  0  0  0  0  0  0  0  0  0  0  0
   -4.0086  -16.0938   16.1774 C   0  0  0  0  0  0  0  0  0  0  0  0
   -4.2680  -17.6451   16.1751 C   0  0  0  0  0  0  0  0  0  0  0  0
   -4.8175  -18.0935   17.5056 C   0  0  0  0  0  0  0  0  0  0  0  0
   -4.4042  -17.0295   18.3478 O   0  0  0  0  0  0  0  0  0  0  0  0
   -3.0674  -16.5475   17.8721 C   0  0  0  0  0  0  0  0  0  0  0  0
   -2.7045  -14.8182   17.1171 C   0  0  0  0  0  0  0  0  0  0  0  0
   -1.1206  -13.9528   16.1848 N   0  0  0  0  0  0  0  0  0  0  0  0
    0.6309  -13.6835   16.6770 C   0  0  0  0  0  0  0  0  0  0  0  0
    1.2079  -14.0651   17.6697 O   0  0  0  0  0  0  0  0  0  0  0  0
    1.9418  -12.3897   15.5031 C   0  0  0  0  0  0  0  0  0  0  0  0
    3.7679  -11.0632   15.2523 C   0  0  0  0  0  0  0  0  0  0  0  0
    5.1540   -9.5980   14.2865 C   0  0  0  0  0  0  0  0  0  0  0  0
    6.4316   -7.7601   14.3203 C   0  0  0  0  0  0  0  0  0  0  0  0
    6.4492   -6.6239   15.1934 C   0  0  0  0  0  0  0  0  0  0  0  0
    8.0105   -7.0961   14.7784 N   0  0  0  0  0  0  0  0  0  0  0  0
    9.6347   -6.9986   15.2169 C   0  0  0  0  0  0  0  0  0  0  0  0
   11.0194   -5.7465   15.5058 C   0  0  0  0  0  0  0  0  0  0  0  0
   11.1661   -4.2523   15.4700 C   0  0  0  0  0  0  0  0  0  0  0  0
    9.9822   -3.5927   15.0907 C   0  0  0  0  0  0  0  0  0  0  0  0
    8.7493   -4.6336   14.5839 C   0  0  0  0  0  0  0  0  0  0  0  0
    8.1456   -6.4741   14.5921 C   0  0  0  0  0  0  0  0  0  0  0  0
   -7.9693  -15.2693   15.2845 H   0  0  0  0  0  0  0  0  0  0  0  0
   -8.1477  -15.3887   15.3868 H   0  0  0  0  0  0  0  0  0  0  0  0
   -7.4928  -16.7038   16.9754 H   0  0  0  0  0  0  0  0  0  0  0  0
   -6.4519  -16.2136   18.2029 H   0  0  0  0  0  0  0  0  0  0  0  0
   -3.6176  -16.1364   15.1581 H   0  0  0  0  0  0  0  0  0  0  0  0
   -4.9434  -17.9216   15.3528 H   0  0  0  0  0  0  0  0  0  0  0  0
   -3.3457  -18.1133   15.9412 H   0  0  0  0  0  0  0  0  0  0  0  0
   -5.9007  -18.2165   17.5435 H   0  0  0  0  0  0  0  0  0  0  0  0
   -4.4439  -19.0404   17.8793 H   0  0  0  0  0  0  0  0  0  0  0  0
   -2.4272  -16.3483   18.7867 H   0  0  0  0  0  0  0  0  0  0  0  0
   -2.6407  -17.4051   17.4013 H   0  0  0  0  0  0  0  0  0  0  0  0
   -3.4000  -14.0280   17.0151 H   0  0  0  0  0  0  0  0  0  0  0  0
   -1.2650  -13.5978   15.3000 H   0  0  0  0  0  0  0  0  0  0  0  0
    1.9006  -13.4614   15.7219 H   0  0  0  0  0  0  0  0  0  0  0  0
    1.5921  -12.3430   14.4304 H   0  0  0  0  0  0  0  0  0  0  0  0
    3.7064  -10.7385   16.2929 H   0  0  0  0  0  0  0  0  0  0  0  0
    4.4919  -11.8093   15.0209 H   0  0  0  0  0  0  0  0  0  0  0  0
    5.7826  -10.3211   13.7183 H   0  0  0  0  0  0  0  0  0  0  0  0
    4.3003   -9.2064   13.7093 H   0  0  0  0  0  0  0  0  0  0  0  0
    6.1395   -6.1900   16.1606 H   0  0  0  0  0  0  0  0  0  0  0  0
    8.0584   -8.1395   15.0752 H   0  0  0  0  0  0  0  0  0  0  0  0
   11.9017   -6.2006   16.0122 H   0  0  0  0  0  0  0  0  0  0  0  0
   12.0746   -3.7631   15.7884 H   0  0  0  0  0  0  0  0  0  0  0  0
    9.8404   -2.5198   15.0097 H   0  0  0  0  0  0  0  0  0  0  0  0
    9.8581   -4.5484   14.0451 H   0  0  0  0  0  0  0  0  0  0  0  0
  1  2  1  0
  2  3  2  0
  2  4  1  0
  4  5  1  0
  5  6  1  0
  6  7  1  0
  7  8  1  0
  8  9  1  0
  9 10  1  0
 10 11  1  0
 11 12  1  0
 12 13  1  0
 13 14  2  0
 13 15  1  0
 15 16  1  0
 16 17  1  0
 17 18  1  0
 18 19  2  0
 19 20  1  0
 20 21  1  0
 21 22  2  0
 22 23  1  0
 23 24  2  0
 24 25  1  0
 25 26  2  0
 11  6  1  0
 26 18  1  0
 26 21  1  0
  1 27  1  0
  1 28  1  0
  4 29  1  0
  4 30  1  0
  6 31  1  0
  7 32  1  0
  7 33  1  0
  8 34  1  0
  8 35  1  0
 10 36  1  0
 10 37  1  0
 11 38  1  0
 12 39  1  0
 15 40  1  0
 15 41  1  0
 16 42  1  0
 16 43  1  0
 17 44  1  0
 17 45  1  0
 19 46  1  0
 20 47  1  0
 22 48  1  0
 23 49  1  0
 24 50  1  0
 25 51  1  0
M  END
>  <Energy>  (633) 
2434.4286264857169

>  <compound_id>  (633) 
74520

>  <target_id>  (633) 
1

>  <reference_id>  (633) 
112

>  <inspiration_ids>  (633) 
[112, 93]

>  <energy_score>  (633) 
2327.232650822767

>  <distance_score>  (633) 
10.633395126811378

>  <path>  (633) 
/opt/xchem-fragalysis-2/maxwin/BulkDock/SCRATCH/511020/C74520-P112/C74520-P112.minimised.mol

>  <scratch_subdir>  (633) 
/opt/xchem-fragalysis-2/maxwin/BulkDock/SCRATCH/511020/C74520-P112

>  <fragmenstein_runtime>  (633) 
38.07021450996399

>  <fragmenstein_outcome>  (633) 
too moved

>  <fragmenstein_mode>  (633) 
expansion

>  <fragmenstein_error>  (633) 


$$$$
C74520-P93
     RDKit          3D

 51 53  0  0  0  0  0  0  0  0999 V2000
  -10.0875  -16.7033   19.9273 N   0  0  0  0  0  0  0  0  0  0  0  0
   -9.2108  -16.9009   18.7781 C   0  0  0  0  0  0  0  0  0  0  0  0
   -9.4079  -17.4541   17.7345 O   0  0  0  0  0  0  0  0  0  0  0  0
   -7.8104  -16.2606   19.0603 C   0  0  0  0  0  0  0  0  0  0  0  0
   -6.7827  -16.2723   18.0945 O   0  0  0  0  0  0  0  0  0  0  0  0
   -6.6054  -15.2334   17.1126 C   0  0  0  0  0  0  0  0  0  0  0  0
   -7.9527  -14.7046   16.5692 C   0  0  0  0  0  0  0  0  0  0  0  0
   -8.5003  -13.5395   17.3762 C   0  0  0  0  0  0  0  0  0  0  0  0
   -7.6179  -12.4206   17.4271 O   0  0  0  0  0  0  0  0  0  0  0  0
   -6.3238  -12.6169   18.0534 C   0  0  0  0  0  0  0  0  0  0  0  0
   -5.4742  -13.7737   17.2609 C   0  0  0  0  0  0  0  0  0  0  0  0
   -3.4331  -13.6112   17.1333 N   0  0  0  0  0  0  0  0  0  0  0  0
   -2.4673  -14.3608   16.4239 C   0  0  0  0  0  0  0  0  0  0  0  0
   -2.5971  -15.2360   15.6508 O   0  0  0  0  0  0  0  0  0  0  0  0
   -0.8988  -13.6285   17.1765 C   0  0  0  0  0  0  0  0  0  0  0  0
    1.0743  -13.8328   16.6773 C   0  0  0  0  0  0  0  0  0  0  0  0
    2.1911  -12.6226   15.3758 C   0  0  0  0  0  0  0  0  0  0  0  0
    4.1606  -11.8910   14.8709 C   0  0  0  0  0  0  0  0  0  0  0  0
    5.1012  -12.7568   14.1407 C   0  0  0  0  0  0  0  0  0  0  0  0
    6.1840  -13.2772   13.2879 N   0  0  0  0  0  0  0  0  0  0  0  0
    6.8697  -12.2104   13.1875 C   0  0  0  0  0  0  0  0  0  0  0  0
    8.3305  -12.0809   13.1644 C   0  0  0  0  0  0  0  0  0  0  0  0
    8.8229  -10.8642   13.5234 C   0  0  0  0  0  0  0  0  0  0  0  0
    7.8370   -9.9340   13.7118 C   0  0  0  0  0  0  0  0  0  0  0  0
    6.3796  -10.3754   13.7893 C   0  0  0  0  0  0  0  0  0  0  0  0
    5.5223  -11.4013   13.6332 C   0  0  0  0  0  0  0  0  0  0  0  0
   -9.5418  -16.2810   20.7013 H   0  0  0  0  0  0  0  0  0  0  0  0
   -9.6188  -16.0767   20.6074 H   0  0  0  0  0  0  0  0  0  0  0  0
   -7.9514  -15.2606   19.4717 H   0  0  0  0  0  0  0  0  0  0  0  0
   -7.4176  -16.8636   19.8904 H   0  0  0  0  0  0  0  0  0  0  0  0
   -6.2254  -15.8898   16.3264 H   0  0  0  0  0  0  0  0  0  0  0  0
   -8.6995  -15.4962   16.4975 H   0  0  0  0  0  0  0  0  0  0  0  0
   -7.7983  -14.3423   15.5473 H   0  0  0  0  0  0  0  0  0  0  0  0
   -8.7866  -13.8035   18.3939 H   0  0  0  0  0  0  0  0  0  0  0  0
   -9.4179  -13.1864   16.8920 H   0  0  0  0  0  0  0  0  0  0  0  0
   -6.4812  -12.7238   19.1253 H   0  0  0  0  0  0  0  0  0  0  0  0
   -5.7857  -11.6654   17.9408 H   0  0  0  0  0  0  0  0  0  0  0  0
   -5.7890  -13.1798   16.4708 H   0  0  0  0  0  0  0  0  0  0  0  0
   -2.9577  -12.8661   17.6591 H   0  0  0  0  0  0  0  0  0  0  0  0
   -1.1722  -14.1554   18.0943 H   0  0  0  0  0  0  0  0  0  0  0  0
   -1.0849  -12.6420   17.6287 H   0  0  0  0  0  0  0  0  0  0  0  0
    1.6034  -14.0777   17.6269 H   0  0  0  0  0  0  0  0  0  0  0  0
    1.1046  -14.7849   16.2575 H   0  0  0  0  0  0  0  0  0  0  0  0
    1.4486  -12.4085   14.5583 H   0  0  0  0  0  0  0  0  0  0  0  0
    2.5953  -11.9391   16.2918 H   0  0  0  0  0  0  0  0  0  0  0  0
    5.9268  -13.0090   14.6856 H   0  0  0  0  0  0  0  0  0  0  0  0
    6.5786  -14.1753   13.4588 H   0  0  0  0  0  0  0  0  0  0  0  0
    8.9598  -12.9437   12.9975 H   0  0  0  0  0  0  0  0  0  0  0  0
    9.8794  -10.7049   13.6405 H   0  0  0  0  0  0  0  0  0  0  0  0
    8.0254   -8.9043   13.9967 H   0  0  0  0  0  0  0  0  0  0  0  0
    5.5418   -9.6697   14.0647 H   0  0  0  0  0  0  0  0  0  0  0  0
  1  2  1  0
  2  3  2  0
  2  4  1  0
  4  5  1  0
  5  6  1  0
  6  7  1  0
  7  8  1  0
  8  9  1  0
  9 10  1  0
 10 11  1  0
 11 12  1  0
 12 13  1  0
 13 14  2  0
 13 15  1  0
 15 16  1  0
 16 17  1  0
 17 18  1  0
 18 19  2  0
 19 20  1  0
 20 21  1  0
 21 22  2  0
 22 23  1  0
 23 24  2  0
 24 25  1  0
 25 26  2  0
 11  6  1  0
 26 18  1  0
 26 21  1  0
  1 27  1  0
  1 28  1  0
  4 29  1  0
  4 30  1  0
  6 31  1  0
  7 32  1  0
  7 33  1  0
  8 34  1  0
  8 35  1  0
 10 36  1  0
 10 37  1  0
 11 38  1  0
 12 39  1  0
 15 40  1  0
 15 41  1  0
 16 42  1  0
 16 43  1  0
 17 44  1  0
 17 45  1  0
 19 46  1  0
 20 47  1  0
 22 48  1  0
 23 49  1  0
 24 50  1  0
 25 51  1  0
M  END
>  <Energy>  (634) 
1231.0222547922619

>  <compound_id>  (634) 
74520

>  <target_id>  (634) 
1

>  <reference_id>  (634) 
93

>  <inspiration_ids>  (634) 
[112, 93]

>  <energy_score>  (634) 
1123.8262791293023

>  <distance_score>  (634) 
12.450020309097631

>  <path>  (634) 
/opt/xchem-fragalysis-2/maxwin/BulkDock/SCRATCH/511020/C74520-P93/C74520-P93.minimised.mol

>  <scratch_subdir>  (634) 
/opt/xchem-fragalysis-2/maxwin/BulkDock/SCRATCH/511020/C74520-P93

>  <fragmenstein_runtime>  (634) 
22.09031891822815

>  <fragmenstein_outcome>  (634) 
too moved

>  <fragmenstein_mode>  (634) 
expansion

>  <fragmenstein_error>  (634) 


$$$$
C69208-P112
     RDKit          3D

 41 43  0  0  0  0  0  0  0  0999 V2000
   -1.7713  -18.9337    9.1893 C   0  0  0  0  0  0  0  0  0  0  0  0
   -3.2982  -19.2477    8.9411 C   0  0  0  0  0  0  0  0  0  0  0  0
   -4.6269  -20.2931    9.2559 O   0  0  0  0  0  0  0  0  0  0  0  0
   -5.4238  -20.8965   10.6661 C   0  0  0  0  0  0  0  0  0  0  0  0
   -5.2181  -22.5441   10.7241 C   0  0  0  0  0  0  0  0  0  0  0  0
   -6.1516  -23.5489   11.2133 N   0  0  0  0  0  0  0  0  0  0  0  0
   -6.3958  -24.9038   10.7784 C   0  0  0  0  0  0  0  0  0  0  0  0
   -5.8379  -25.5708    9.9572 O   0  0  0  0  0  0  0  0  0  0  0  0
   -7.6091  -25.5302   11.3935 C   0  0  0  0  0  0  0  0  0  0  0  0
   -7.8663  -26.8963   11.4264 C   0  0  0  0  0  0  0  0  0  0  0  0
   -9.1502  -27.1656   11.9669 C   0  0  0  0  0  0  0  0  0  0  0  0
   -9.9290  -28.2647   12.2282 N   0  0  0  0  0  0  0  0  0  0  0  0
  -11.1063  -27.8337   12.7807 C   0  0  0  0  0  0  0  0  0  0  0  0
  -11.0998  -26.4580   12.8584 C   0  0  0  0  0  0  0  0  0  0  0  0
   -9.8425  -26.0547   12.3269 C   0  0  0  0  0  0  0  0  0  0  0  0
   -8.9581  -24.6205   11.9941 S   0  0  0  0  0  0  0  0  0  0  0  0
   -5.0884  -20.2806   12.0115 C   0  0  0  0  0  0  0  0  0  0  0  0
   -6.0515  -19.0778   12.4191 C   0  0  0  0  0  0  0  0  0  0  0  0
   -7.4579  -19.3605   12.1802 O   0  0  0  0  0  0  0  0  0  0  0  0
   -7.6392  -20.6937   11.9971 C   0  0  0  0  0  0  0  0  0  0  0  0
   -6.9171  -20.3806   10.7824 C   0  0  0  0  0  0  0  0  0  0  0  0
   -1.3220  -19.1436   10.1448 H   0  0  0  0  0  0  0  0  0  0  0  0
   -1.5830  -17.8800    8.9505 H   0  0  0  0  0  0  0  0  0  0  0  0
   -1.1711  -19.4969    8.4599 H   0  0  0  0  0  0  0  0  0  0  0  0
   -3.1528  -19.6789    7.9398 H   0  0  0  0  0  0  0  0  0  0  0  0
   -3.7127  -18.2598    8.7243 H   0  0  0  0  0  0  0  0  0  0  0  0
   -4.3527  -22.7722   11.3318 H   0  0  0  0  0  0  0  0  0  0  0  0
   -5.0516  -22.8536    9.6905 H   0  0  0  0  0  0  0  0  0  0  0  0
   -6.7641  -23.3363   11.9852 H   0  0  0  0  0  0  0  0  0  0  0  0
   -7.1689  -27.6396   11.0577 H   0  0  0  0  0  0  0  0  0  0  0  0
   -9.6405  -29.2156   12.0297 H   0  0  0  0  0  0  0  0  0  0  0  0
  -11.8658  -28.5506   13.0652 H   0  0  0  0  0  0  0  0  0  0  0  0
  -11.8907  -25.8244   13.2343 H   0  0  0  0  0  0  0  0  0  0  0  0
   -4.0710  -20.1537   12.2832 H   0  0  0  0  0  0  0  0  0  0  0  0
   -5.3690  -21.0845   12.6426 H   0  0  0  0  0  0  0  0  0  0  0  0
   -6.1371  -18.1172   11.9586 H   0  0  0  0  0  0  0  0  0  0  0  0
   -5.7949  -18.6703   13.3946 H   0  0  0  0  0  0  0  0  0  0  0  0
   -7.2309  -21.3651   12.7527 H   0  0  0  0  0  0  0  0  0  0  0  0
   -8.7021  -20.9118   11.8802 H   0  0  0  0  0  0  0  0  0  0  0  0
   -6.6705  -19.3936   10.4895 H   0  0  0  0  0  0  0  0  0  0  0  0
   -7.8508  -20.3404   10.1720 H   0  0  0  0  0  0  0  0  0  0  0  0
  1  2  1  0
  2  3  1  0
  3  4  1  0
  4  5  1  0
  5  6  1  0
  6  7  1  0
  7  8  2  0
  7  9  1  0
  9 10  2  0
 10 11  1  0
 11 12  1  0
 12 13  1  0
 13 14  2  0
 14 15  1  0
 15 16  1  0
  4 17  1  0
 17 18  1  0
 18 19  1  0
 19 20  1  0
 20 21  1  0
 21  4  1  0
 16  9  1  0
 15 11  2  0
  1 22  1  0
  1 23  1  0
  1 24  1  0
  2 25  1  0
  2 26  1  0
  5 27  1  0
  5 28  1  0
  6 29  1  0
 10 30  1  0
 12 31  1  0
 13 32  1  0
 14 33  1  0
 17 34  1  0
 17 35  1  0
 18 36  1  0
 18 37  1  0
 20 38  1  0
 20 39  1  0
 21 40  1  0
 21 41  1  0
M  END
>  <Energy>  (635) 
290.33921216352837

>  <compound_id>  (635) 
69208

>  <target_id>  (635) 
1

>  <reference_id>  (635) 
112

>  <inspiration_ids>  (635) 
[112, 93]

>  <energy_score>  (635) 
197.25138790858279

>  <distance_score>  (635) 
13.251686577199322

>  <path>  (635) 
/opt/xchem-fragalysis-2/maxwin/BulkDock/SCRATCH/511020/C69208-P112/C69208-P112.minimised.mol

>  <scratch_subdir>  (635) 
/opt/xchem-fragalysis-2/maxwin/BulkDock/SCRATCH/511020/C69208-P112

>  <fragmenstein_runtime>  (635) 
6.874776601791382

>  <fragmenstein_outcome>  (635) 
too moved

>  <fragmenstein_mode>  (635) 
expansion

>  <fragmenstein_error>  (635) 


$$$$
C69208-P93
     RDKit          3D

 41 43  0  0  0  0  0  0  0  0999 V2000
    0.9623  -12.1062    9.2138 C   0  0  0  0  0  0  0  0  0  0  0  0
    0.6556  -13.5513    8.7596 C   0  0  0  0  0  0  0  0  0  0  0  0
   -0.6641  -13.6886    8.1486 O   0  0  0  0  0  0  0  0  0  0  0  0
   -1.1564  -15.0037    7.6257 C   0  0  0  0  0  0  0  0  0  0  0  0
   -0.0755  -15.6927    6.7007 C   0  0  0  0  0  0  0  0  0  0  0  0
   -0.3820  -17.0499    6.2610 N   0  0  0  0  0  0  0  0  0  0  0  0
   -1.0664  -17.5308    5.0924 C   0  0  0  0  0  0  0  0  0  0  0  0
   -1.4907  -16.9438    4.1410 O   0  0  0  0  0  0  0  0  0  0  0  0
   -1.3482  -18.9947    5.1839 C   0  0  0  0  0  0  0  0  0  0  0  0
   -2.3878  -19.6618    4.5402 C   0  0  0  0  0  0  0  0  0  0  0  0
   -2.4595  -21.0214    4.9500 C   0  0  0  0  0  0  0  0  0  0  0  0
   -3.2783  -22.1070    4.7449 N   0  0  0  0  0  0  0  0  0  0  0  0
   -2.7130  -23.1849    5.3712 C   0  0  0  0  0  0  0  0  0  0  0  0
   -1.5594  -22.7897    6.0149 C   0  0  0  0  0  0  0  0  0  0  0  0
   -1.4426  -21.3913    5.7742 C   0  0  0  0  0  0  0  0  0  0  0  0
   -0.4006  -20.0584    6.1650 S   0  0  0  0  0  0  0  0  0  0  0  0
   -2.4261  -14.6573    6.7777 C   0  0  0  0  0  0  0  0  0  0  0  0
   -3.7409  -15.0990    7.4107 C   0  0  0  0  0  0  0  0  0  0  0  0
   -3.7630  -16.4946    7.6474 O   0  0  0  0  0  0  0  0  0  0  0  0
   -2.6069  -17.0041    8.3092 C   0  0  0  0  0  0  0  0  0  0  0  0
   -1.6002  -15.9371    8.7731 C   0  0  0  0  0  0  0  0  0  0  0  0
    1.9620  -12.0428    9.6514 H   0  0  0  0  0  0  0  0  0  0  0  0
    0.2238  -11.7786    9.9515 H   0  0  0  0  0  0  0  0  0  0  0  0
    0.8940  -11.4227    8.3619 H   0  0  0  0  0  0  0  0  0  0  0  0
    0.7057  -14.2295    9.6168 H   0  0  0  0  0  0  0  0  0  0  0  0
    1.4112  -13.8407    8.0247 H   0  0  0  0  0  0  0  0  0  0  0  0
    0.8766  -15.7722    7.2330 H   0  0  0  0  0  0  0  0  0  0  0  0
    0.0974  -15.0720    5.8143 H   0  0  0  0  0  0  0  0  0  0  0  0
   -0.0944  -17.8439    6.8259 H   0  0  0  0  0  0  0  0  0  0  0  0
   -3.0816  -19.1687    3.8697 H   0  0  0  0  0  0  0  0  0  0  0  0
   -4.1241  -22.0760    4.1891 H   0  0  0  0  0  0  0  0  0  0  0  0
   -3.1833  -24.1577    5.3113 H   0  0  0  0  0  0  0  0  0  0  0  0
   -0.8942  -23.4147    6.5943 H   0  0  0  0  0  0  0  0  0  0  0  0
   -2.3629  -15.1376    5.7968 H   0  0  0  0  0  0  0  0  0  0  0  0
   -2.4706  -13.5779    6.5881 H   0  0  0  0  0  0  0  0  0  0  0  0
   -3.9244  -14.5586    8.3425 H   0  0  0  0  0  0  0  0  0  0  0  0
   -4.5733  -14.8632    6.7397 H   0  0  0  0  0  0  0  0  0  0  0  0
   -2.9231  -17.6313    9.1385 H   0  0  0  0  0  0  0  0  0  0  0  0
   -2.1540  -17.7266    7.6378 H   0  0  0  0  0  0  0  0  0  0  0  0
   -0.7248  -16.4134    9.2299 H   0  0  0  0  0  0  0  0  0  0  0  0
   -2.0565  -15.3227    9.5578 H   0  0  0  0  0  0  0  0  0  0  0  0
  1  2  1  0
  2  3  1  0
  3  4  1  0
  4  5  1  0
  5  6  1  0
  6  7  1  0
  7  8  2  0
  7  9  1  0
  9 10  2  0
 10 11  1  0
 11 12  1  0
 12 13  1  0
 13 14  2  0
 14 15  1  0
 15 16  1  0
  4 17  1  0
 17 18  1  0
 18 19  1  0
 19 20  1  0
 20 21  1  0
 21  4  1  0
 16  9  1  0
 15 11  2  0
  1 22  1  0
  1 23  1  0
  1 24  1  0
  2 25  1  0
  2 26  1  0
  5 27  1  0
  5 28  1  0
  6 29  1  0
 10 30  1  0
 12 31  1  0
 13 32  1  0
 14 33  1  0
 17 34  1  0
 17 35  1  0
 18 36  1  0
 18 37  1  0
 20 38  1  0
 20 39  1  0
 21 40  1  0
 21 41  1  0
M  END
>  <Energy>  (636) 
43.131467382662834

>  <compound_id>  (636) 
69208

>  <target_id>  (636) 
1

>  <reference_id>  (636) 
93

>  <inspiration_ids>  (636) 
[112, 93]

>  <energy_score>  (636) 
-49.956356872282015

>  <distance_score>  (636) 
16.030069154572196

>  <path>  (636) 
/opt/xchem-fragalysis-2/maxwin/BulkDock/SCRATCH/511020/C69208-P93/C69208-P93.minimised.mol

>  <scratch_subdir>  (636) 
/opt/xchem-fragalysis-2/maxwin/BulkDock/SCRATCH/511020/C69208-P93

>  <fragmenstein_runtime>  (636) 
10.684621095657349

>  <fragmenstein_outcome>  (636) 
too moved

>  <fragmenstein_mode>  (636) 
expansion

>  <fragmenstein_error>  (636) 


$$$$
C69209-P112
     RDKit          3D

 45 47  0  0  0  0  0  0  0  0999 V2000
   -6.5204  -13.2273   12.0664 C   0  0  0  0  0  0  0  0  0  0  0  0
   -6.1270  -15.0022   11.1017 C   0  0  0  0  0  0  0  0  0  0  0  0
   -6.5763  -16.7993   11.0964 O   0  0  0  0  0  0  0  0  0  0  0  0
   -7.1811  -17.8701   12.4487 C   0  0  0  0  0  0  0  0  0  0  0  0
   -6.9935  -19.6218   11.9094 C   0  0  0  0  0  0  0  0  0  0  0  0
   -8.0877  -20.6915   11.9878 N   0  0  0  0  0  0  0  0  0  0  0  0
   -7.8428  -21.9732   12.7659 C   0  0  0  0  0  0  0  0  0  0  0  0
   -8.9880  -23.0855   12.7090 C   0  0  0  0  0  0  0  0  0  0  0  0
  -10.3099  -22.7368   12.9308 C   0  0  0  0  0  0  0  0  0  0  0  0
  -11.3758  -23.6374   12.7697 C   0  0  0  0  0  0  0  0  0  0  0  0
  -11.1723  -24.9578   12.3875 C   0  0  0  0  0  0  0  0  0  0  0  0
   -9.8679  -25.3660   12.1035 C   0  0  0  0  0  0  0  0  0  0  0  0
   -9.3215  -26.5845   11.6195 C   0  0  0  0  0  0  0  0  0  0  0  0
   -7.9800  -26.3877   11.4127 C   0  0  0  0  0  0  0  0  0  0  0  0
   -7.6943  -25.0965   11.7587 N   0  0  0  0  0  0  0  0  0  0  0  0
   -8.8251  -24.4504   12.2550 C   0  0  0  0  0  0  0  0  0  0  0  0
   -6.4994  -17.1235   13.6769 C   0  0  0  0  0  0  0  0  0  0  0  0
   -7.6332  -16.1409   14.7744 C   0  0  0  0  0  0  0  0  0  0  0  0
   -8.8633  -16.7057   15.1702 O   0  0  0  0  0  0  0  0  0  0  0  0
   -9.7366  -16.7254   14.0789 C   0  0  0  0  0  0  0  0  0  0  0  0
   -9.0530  -17.3884   12.8413 C   0  0  0  0  0  0  0  0  0  0  0  0
   -5.7732  -12.4673   12.1513 H   0  0  0  0  0  0  0  0  0  0  0  0
   -7.6080  -12.9971   11.9321 H   0  0  0  0  0  0  0  0  0  0  0  0
   -6.6536  -13.3495   13.1513 H   0  0  0  0  0  0  0  0  0  0  0  0
   -5.4196  -15.2585   11.8536 H   0  0  0  0  0  0  0  0  0  0  0  0
   -6.1192  -14.7717   10.0161 H   0  0  0  0  0  0  0  0  0  0  0  0
   -6.0457  -19.9968   12.2940 H   0  0  0  0  0  0  0  0  0  0  0  0
   -6.7857  -19.5966   10.8586 H   0  0  0  0  0  0  0  0  0  0  0  0
   -8.4413  -20.9018   11.0540 H   0  0  0  0  0  0  0  0  0  0  0  0
   -7.7096  -21.7718   13.8219 H   0  0  0  0  0  0  0  0  0  0  0  0
   -6.9080  -22.4186   12.4140 H   0  0  0  0  0  0  0  0  0  0  0  0
  -10.4932  -21.6984   13.1847 H   0  0  0  0  0  0  0  0  0  0  0  0
  -12.3998  -23.3040   12.9169 H   0  0  0  0  0  0  0  0  0  0  0  0
  -12.0114  -25.6340   12.2600 H   0  0  0  0  0  0  0  0  0  0  0  0
   -9.8638  -27.4955   11.4034 H   0  0  0  0  0  0  0  0  0  0  0  0
   -7.2094  -27.0424   11.0279 H   0  0  0  0  0  0  0  0  0  0  0  0
   -6.7820  -24.6660   11.6710 H   0  0  0  0  0  0  0  0  0  0  0  0
   -5.7371  -16.3857   13.4738 H   0  0  0  0  0  0  0  0  0  0  0  0
   -5.8802  -17.9551   13.9246 H   0  0  0  0  0  0  0  0  0  0  0  0
   -7.7997  -15.1008   14.5069 H   0  0  0  0  0  0  0  0  0  0  0  0
   -7.1186  -15.9281   15.7321 H   0  0  0  0  0  0  0  0  0  0  0  0
  -10.1213  -15.7175   13.8780 H   0  0  0  0  0  0  0  0  0  0  0  0
  -10.6290  -17.2930   14.3689 H   0  0  0  0  0  0  0  0  0  0  0  0
   -9.4357  -18.3976   12.6980 H   0  0  0  0  0  0  0  0  0  0  0  0
   -9.5871  -16.8322   12.0549 H   0  0  0  0  0  0  0  0  0  0  0  0
  1  2  1  0
  2  3  1  0
  3  4  1  0
  4  5  1  0
  5  6  1  0
  6  7  1  0
  7  8  1  0
  8  9  2  0
  9 10  1  0
 10 11  2  0
 11 12  1  0
 12 13  1  0
 13 14  2  0
 14 15  1  0
 15 16  1  0
  4 17  1  0
 17 18  1  0
 18 19  1  0
 19 20  1  0
 20 21  1  0
 21  4  1  0
 16  8  1  0
 16 12  2  0
  1 22  1  0
  1 23  1  0
  1 24  1  0
  2 25  1  0
  2 26  1  0
  5 27  1  0
  5 28  1  0
  6 29  1  0
  7 30  1  0
  7 31  1  0
  9 32  1  0
 10 33  1  0
 11 34  1  0
 13 35  1  0
 14 36  1  0
 15 37  1  0
 17 38  1  0
 17 39  1  0
 18 40  1  0
 18 41  1  0
 20 42  1  0
 20 43  1  0
 21 44  1  0
 21 45  1  0
M  END
>  <Energy>  (637) 
414.22650212279353

>  <compound_id>  (637) 
69209

>  <target_id>  (637) 
1

>  <reference_id>  (637) 
112

>  <inspiration_ids>  (637) 
[112, 93]

>  <energy_score>  (637) 
278.79959657786713

>  <distance_score>  (637) 
13.884806310420364

>  <path>  (637) 
/opt/xchem-fragalysis-2/maxwin/BulkDock/SCRATCH/511020/C69209-P112/C69209-P112.minimised.mol

>  <scratch_subdir>  (637) 
/opt/xchem-fragalysis-2/maxwin/BulkDock/SCRATCH/511020/C69209-P112

>  <fragmenstein_runtime>  (637) 
6.606214284896851

>  <fragmenstein_outcome>  (637) 
too moved

>  <fragmenstein_mode>  (637) 
expansion

>  <fragmenstein_error>  (637) 


$$$$
C69209-P93
     RDKit          3D

 45 47  0  0  0  0  0  0  0  0999 V2000
   -7.1173  -15.8417   16.0793 C   0  0  0  0  0  0  0  0  0  0  0  0
   -7.9861  -15.9700   14.7446 C   0  0  0  0  0  0  0  0  0  0  0  0
   -9.0501  -17.0174   14.7188 O   0  0  0  0  0  0  0  0  0  0  0  0
  -10.3474  -17.0601   13.8837 C   0  0  0  0  0  0  0  0  0  0  0  0
  -10.9637  -18.6092   13.8846 C   0  0  0  0  0  0  0  0  0  0  0  0
  -10.9542  -20.1782   13.1775 N   0  0  0  0  0  0  0  0  0  0  0  0
  -10.1880  -21.4715   12.8948 C   0  0  0  0  0  0  0  0  0  0  0  0
  -10.6648  -22.7690   12.1865 C   0  0  0  0  0  0  0  0  0  0  0  0
  -11.1323  -23.8708   12.9288 C   0  0  0  0  0  0  0  0  0  0  0  0
  -11.5794  -25.0702   12.3731 C   0  0  0  0  0  0  0  0  0  0  0  0
  -11.5095  -25.2696   11.0024 C   0  0  0  0  0  0  0  0  0  0  0  0
  -10.8824  -24.2887   10.2217 C   0  0  0  0  0  0  0  0  0  0  0  0
  -10.5865  -24.2051    8.8346 C   0  0  0  0  0  0  0  0  0  0  0  0
   -9.9140  -23.0286    8.6234 C   0  0  0  0  0  0  0  0  0  0  0  0
   -9.7239  -22.4392    9.8459 N   0  0  0  0  0  0  0  0  0  0  0  0
  -10.4306  -23.1106   10.8279 C   0  0  0  0  0  0  0  0  0  0  0  0
  -10.3901  -16.3403   12.5541 C   0  0  0  0  0  0  0  0  0  0  0  0
  -10.8659  -14.8500   12.5730 C   0  0  0  0  0  0  0  0  0  0  0  0
  -12.1799  -14.7035   13.1179 O   0  0  0  0  0  0  0  0  0  0  0  0
  -12.2958  -15.1774   14.4490 C   0  0  0  0  0  0  0  0  0  0  0  0
  -11.2301  -16.2071   14.7941 C   0  0  0  0  0  0  0  0  0  0  0  0
   -6.0900  -16.1520   15.9897 H   0  0  0  0  0  0  0  0  0  0  0  0
   -7.6295  -16.4101   16.8701 H   0  0  0  0  0  0  0  0  0  0  0  0
   -6.9792  -14.8009   16.3857 H   0  0  0  0  0  0  0  0  0  0  0  0
   -7.2575  -16.3115   14.0375 H   0  0  0  0  0  0  0  0  0  0  0  0
   -8.3933  -14.9907   14.5029 H   0  0  0  0  0  0  0  0  0  0  0  0
  -10.7722  -18.7765   14.9584 H   0  0  0  0  0  0  0  0  0  0  0  0
  -11.9644  -18.3813   13.8992 H   0  0  0  0  0  0  0  0  0  0  0  0
  -11.9238  -20.4654   13.1978 H   0  0  0  0  0  0  0  0  0  0  0  0
   -9.8425  -21.8823   13.8547 H   0  0  0  0  0  0  0  0  0  0  0  0
   -9.4080  -21.1916   12.1716 H   0  0  0  0  0  0  0  0  0  0  0  0
  -11.0690  -23.8224   14.0028 H   0  0  0  0  0  0  0  0  0  0  0  0
  -11.9551  -25.8607   13.0168 H   0  0  0  0  0  0  0  0  0  0  0  0
  -11.8608  -26.1950   10.5580 H   0  0  0  0  0  0  0  0  0  0  0  0
  -10.8340  -24.9374    8.0776 H   0  0  0  0  0  0  0  0  0  0  0  0
   -9.5022  -22.5886    7.7268 H   0  0  0  0  0  0  0  0  0  0  0  0
   -9.1576  -21.6142   10.0138 H   0  0  0  0  0  0  0  0  0  0  0  0
   -9.4488  -16.5927   12.1667 H   0  0  0  0  0  0  0  0  0  0  0  0
  -10.9370  -16.7268   11.7116 H   0  0  0  0  0  0  0  0  0  0  0  0
  -10.9340  -14.4642   11.5514 H   0  0  0  0  0  0  0  0  0  0  0  0
  -10.1979  -14.1726   13.1150 H   0  0  0  0  0  0  0  0  0  0  0  0
  -13.3103  -15.5210   14.6509 H   0  0  0  0  0  0  0  0  0  0  0  0
  -12.1927  -14.2997   15.1007 H   0  0  0  0  0  0  0  0  0  0  0  0
  -11.3787  -16.6480   15.7855 H   0  0  0  0  0  0  0  0  0  0  0  0
  -10.4588  -15.4636   14.8123 H   0  0  0  0  0  0  0  0  0  0  0  0
  1  2  1  0
  2  3  1  0
  3  4  1  0
  4  5  1  0
  5  6  1  0
  6  7  1  0
  7  8  1  0
  8  9  2  0
  9 10  1  0
 10 11  2  0
 11 12  1  0
 12 13  1  0
 13 14  2  0
 14 15  1  0
 15 16  1  0
  4 17  1  0
 17 18  1  0
 18 19  1  0
 19 20  1  0
 20 21  1  0
 21  4  1  0
 16  8  1  0
 16 12  2  0
  1 22  1  0
  1 23  1  0
  1 24  1  0
  2 25  1  0
  2 26  1  0
  5 27  1  0
  5 28  1  0
  6 29  1  0
  7 30  1  0
  7 31  1  0
  9 32  1  0
 10 33  1  0
 11 34  1  0
 13 35  1  0
 14 36  1  0
 15 37  1  0
 17 38  1  0
 17 39  1  0
 18 40  1  0
 18 41  1  0
 20 42  1  0
 20 43  1  0
 21 44  1  0
 21 45  1  0
M  END
>  <Energy>  (638) 
234.08937721448763

>  <compound_id>  (638) 
69209

>  <target_id>  (638) 
1

>  <reference_id>  (638) 
93

>  <inspiration_ids>  (638) 
[112, 93]

>  <energy_score>  (638) 
98.66247166956751

>  <distance_score>  (638) 
14.320338294447467

>  <path>  (638) 
/opt/xchem-fragalysis-2/maxwin/BulkDock/SCRATCH/511020/C69209-P93/C69209-P93.minimised.mol

>  <scratch_subdir>  (638) 
/opt/xchem-fragalysis-2/maxwin/BulkDock/SCRATCH/511020/C69209-P93

>  <fragmenstein_runtime>  (638) 
5.950957775115967

>  <fragmenstein_outcome>  (638) 
too moved

>  <fragmenstein_mode>  (638) 
expansion

>  <fragmenstein_error>  (638) 


$$$$
C69222-P112
     RDKit          3D

 38 40  0  0  0  0  0  0  0  0999 V2000
   -6.6873  -15.0220   12.0468 N   0  0  0  0  0  0  0  0  0  0  0  0
   -6.0330  -15.5955   12.8197 C   0  0  0  0  0  0  0  0  0  0  0  0
   -5.5721  -16.5641   14.0111 C   0  0  0  0  0  0  0  0  0  0  0  0
   -3.9703  -16.2314   15.3618 C   0  0  0  0  0  0  0  0  0  0  0  0
   -3.9716  -16.9199   16.3702 O   0  0  0  0  0  0  0  0  0  0  0  0
   -2.7288  -14.8549   15.0875 N   0  0  0  0  0  0  0  0  0  0  0  0
   -1.1653  -14.0948   16.3058 C   0  0  0  0  0  0  0  0  0  0  0  0
    0.9007  -13.7791   16.5289 C   0  0  0  0  0  0  0  0  0  0  0  0
    1.7516  -14.7792   17.5097 C   0  0  0  0  0  0  0  0  0  0  0  0
    3.0305  -14.8477   18.0775 C   0  0  0  0  0  0  0  0  0  0  0  0
    3.6721  -13.6549   18.1882 C   0  0  0  0  0  0  0  0  0  0  0  0
    3.2285  -12.2614   17.5177 C   0  0  0  0  0  0  0  0  0  0  0  0
    3.6656  -10.9808   18.1261 C   0  0  0  0  0  0  0  0  0  0  0  0
    3.4169  -10.1963   17.0852 C   0  0  0  0  0  0  0  0  0  0  0  0
    3.5046  -11.2997   16.1750 N   0  0  0  0  0  0  0  0  0  0  0  0
    2.0457  -12.3300   15.9897 C   0  0  0  0  0  0  0  0  0  0  0  0
   -7.4255  -16.2442   14.5965 C   0  0  0  0  0  0  0  0  0  0  0  0
   -8.6281  -16.7765   13.7559 C   0  0  0  0  0  0  0  0  0  0  0  0
   -8.6423  -18.2348   13.3935 C   0  0  0  0  0  0  0  0  0  0  0  0
   -7.4522  -18.8637   13.7793 O   0  0  0  0  0  0  0  0  0  0  0  0
   -6.2547  -18.1696   13.3826 C   0  0  0  0  0  0  0  0  0  0  0  0
   -2.8559  -14.4756   14.1427 H   0  0  0  0  0  0  0  0  0  0  0  0
   -1.0353  -14.0058   15.2840 H   0  0  0  0  0  0  0  0  0  0  0  0
   -1.6836  -13.4057   16.9745 H   0  0  0  0  0  0  0  0  0  0  0  0
    1.2376  -15.6862   17.8991 H   0  0  0  0  0  0  0  0  0  0  0  0
    3.3417  -15.7086   18.6592 H   0  0  0  0  0  0  0  0  0  0  0  0
    4.4265  -13.5692   18.9812 H   0  0  0  0  0  0  0  0  0  0  0  0
    4.1550  -10.7921   19.0699 H   0  0  0  0  0  0  0  0  0  0  0  0
    3.7030   -9.1828   16.8300 H   0  0  0  0  0  0  0  0  0  0  0  0
    3.9514  -11.1190   15.2953 H   0  0  0  0  0  0  0  0  0  0  0  0
   -7.6712  -15.1699   14.6184 H   0  0  0  0  0  0  0  0  0  0  0  0
   -7.6281  -16.5045   15.6471 H   0  0  0  0  0  0  0  0  0  0  0  0
   -9.5488  -16.5529   14.3131 H   0  0  0  0  0  0  0  0  0  0  0  0
   -8.7470  -16.1900   12.8388 H   0  0  0  0  0  0  0  0  0  0  0  0
   -9.4646  -18.7497   13.8991 H   0  0  0  0  0  0  0  0  0  0  0  0
   -8.7745  -18.3705   12.3152 H   0  0  0  0  0  0  0  0  0  0  0  0
   -6.5613  -17.9282   12.3891 H   0  0  0  0  0  0  0  0  0  0  0  0
   -5.5257  -18.9801   13.4134 H   0  0  0  0  0  0  0  0  0  0  0  0
  1  2  3  0
  2  3  1  0
  3  4  1  0
  4  5  2  0
  4  6  1  0
  6  7  1  0
  7  8  1  0
  8  9  2  0
  9 10  1  0
 10 11  2  0
 11 12  1  0
 12 13  1  0
 13 14  2  0
 14 15  1  0
 15 16  1  0
  3 17  1  0
 17 18  1  0
 18 19  1  0
 19 20  1  0
 20 21  1  0
 21  3  1  0
 16  8  1  0
 16 12  2  0
  6 22  1  0
  7 23  1  0
  7 24  1  0
  9 25  1  0
 10 26  1  0
 11 27  1  0
 13 28  1  0
 14 29  1  0
 15 30  1  0
 17 31  1  0
 17 32  1  0
 18 33  1  0
 18 34  1  0
 19 35  1  0
 19 36  1  0
 21 37  1  0
 21 38  1  0
M  END
>  <Energy>  (639) 
974.24690501246221

>  <compound_id>  (639) 
69222

>  <target_id>  (639) 
1

>  <reference_id>  (639) 
112

>  <inspiration_ids>  (639) 
[112, 93]

>  <energy_score>  (639) 
931.1579385794894

>  <distance_score>  (639) 
13.600611441047919

>  <path>  (639) 
/opt/xchem-fragalysis-2/maxwin/BulkDock/SCRATCH/511020/C69222-P112/C69222-P112.minimised.mol

>  <scratch_subdir>  (639) 
/opt/xchem-fragalysis-2/maxwin/BulkDock/SCRATCH/511020/C69222-P112

>  <fragmenstein_runtime>  (639) 
10.90783977508545

>  <fragmenstein_outcome>  (639) 
too moved

>  <fragmenstein_mode>  (639) 
expansion

>  <fragmenstein_error>  (639) 


$$$$
C69222-P93
     RDKit          3D

 38 40  0  0  0  0  0  0  0  0999 V2000
   -7.1992  -15.2982   17.4871 N   0  0  0  0  0  0  0  0  0  0  0  0
   -6.2320  -15.8689   17.1851 C   0  0  0  0  0  0  0  0  0  0  0  0
   -5.0351  -16.6845   16.7749 C   0  0  0  0  0  0  0  0  0  0  0  0
   -3.4528  -16.0453   17.3472 C   0  0  0  0  0  0  0  0  0  0  0  0
   -3.1264  -16.6232   18.3857 O   0  0  0  0  0  0  0  0  0  0  0  0
   -2.5374  -14.7086   16.6058 N   0  0  0  0  0  0  0  0  0  0  0  0
   -0.9925  -13.7513   17.2041 C   0  0  0  0  0  0  0  0  0  0  0  0
    1.0334  -13.8110   16.8295 C   0  0  0  0  0  0  0  0  0  0  0  0
    2.0469  -14.4107   17.8646 C   0  0  0  0  0  0  0  0  0  0  0  0
    3.3504  -13.8893   18.2565 C   0  0  0  0  0  0  0  0  0  0  0  0
    3.7203  -12.4445   18.2099 C   0  0  0  0  0  0  0  0  0  0  0  0
    3.1977  -11.6246   17.1555 C   0  0  0  0  0  0  0  0  0  0  0  0
    3.4620  -10.1949   17.0105 C   0  0  0  0  0  0  0  0  0  0  0  0
    3.7722  -10.2568   15.6719 C   0  0  0  0  0  0  0  0  0  0  0  0
    3.6667  -11.7035   15.5863 N   0  0  0  0  0  0  0  0  0  0  0  0
    2.0133  -12.4193   15.9506 C   0  0  0  0  0  0  0  0  0  0  0  0
   -5.3022  -17.9445   17.7661 C   0  0  0  0  0  0  0  0  0  0  0  0
   -6.6334  -18.7144   17.5556 C   0  0  0  0  0  0  0  0  0  0  0  0
   -7.1478  -18.6198   16.1348 C   0  0  0  0  0  0  0  0  0  0  0  0
   -6.0099  -18.5515   15.2976 O   0  0  0  0  0  0  0  0  0  0  0  0
   -5.2532  -17.3169   15.3913 C   0  0  0  0  0  0  0  0  0  0  0  0
   -2.9542  -14.4736   15.7451 H   0  0  0  0  0  0  0  0  0  0  0  0
   -1.1874  -14.2066   18.1631 H   0  0  0  0  0  0  0  0  0  0  0  0
   -1.3275  -12.7546   17.5216 H   0  0  0  0  0  0  0  0  0  0  0  0
    1.9729  -15.3291   18.4093 H   0  0  0  0  0  0  0  0  0  0  0  0
    4.1319  -14.6541   18.2938 H   0  0  0  0  0  0  0  0  0  0  0  0
    4.4639  -12.0360   18.8955 H   0  0  0  0  0  0  0  0  0  0  0  0
    3.8051   -9.4595   17.7239 H   0  0  0  0  0  0  0  0  0  0  0  0
    4.3302   -9.6692   14.9558 H   0  0  0  0  0  0  0  0  0  0  0  0
    4.2140  -12.1534   14.8881 H   0  0  0  0  0  0  0  0  0  0  0  0
   -4.4625  -18.6401   17.6772 H   0  0  0  0  0  0  0  0  0  0  0  0
   -5.2836  -17.6139   18.8152 H   0  0  0  0  0  0  0  0  0  0  0  0
   -6.4523  -19.7655   17.8133 H   0  0  0  0  0  0  0  0  0  0  0  0
   -7.4037  -18.3623   18.2514 H   0  0  0  0  0  0  0  0  0  0  0  0
   -7.7253  -19.5133   15.8776 H   0  0  0  0  0  0  0  0  0  0  0  0
   -7.7949  -17.7529   15.9685 H   0  0  0  0  0  0  0  0  0  0  0  0
   -4.2599  -17.4675   14.9797 H   0  0  0  0  0  0  0  0  0  0  0  0
   -5.7906  -16.7173   14.6775 H   0  0  0  0  0  0  0  0  0  0  0  0
  1  2  3  0
  2  3  1  0
  3  4  1  0
  4  5  2  0
  4  6  1  0
  6  7  1  0
  7  8  1  0
  8  9  2  0
  9 10  1  0
 10 11  2  0
 11 12  1  0
 12 13  1  0
 13 14  2  0
 14 15  1  0
 15 16  1  0
  3 17  1  0
 17 18  1  0
 18 19  1  0
 19 20  1  0
 20 21  1  0
 21  3  1  0
 16  8  1  0
 16 12  2  0
  6 22  1  0
  7 23  1  0
  7 24  1  0
  9 25  1  0
 10 26  1  0
 11 27  1  0
 13 28  1  0
 14 29  1  0
 15 30  1  0
 17 31  1  0
 17 32  1  0
 18 33  1  0
 18 34  1  0
 19 35  1  0
 19 36  1  0
 21 37  1  0
 21 38  1  0
M  END
>  <Energy>  (640) 
635.61589255750948

>  <compound_id>  (640) 
69222

>  <target_id>  (640) 
1

>  <reference_id>  (640) 
93

>  <inspiration_ids>  (640) 
[112, 93]

>  <energy_score>  (640) 
592.5269261245337

>  <distance_score>  (640) 
13.754004237679066

>  <path>  (640) 
/opt/xchem-fragalysis-2/maxwin/BulkDock/SCRATCH/511020/C69222-P93/C69222-P93.minimised.mol

>  <scratch_subdir>  (640) 
/opt/xchem-fragalysis-2/maxwin/BulkDock/SCRATCH/511020/C69222-P93

>  <fragmenstein_runtime>  (640) 
12.144314765930176

>  <fragmenstein_outcome>  (640) 
too moved

>  <fragmenstein_mode>  (640) 
expansion

>  <fragmenstein_error>  (640) 


$$$$
C69224-P112
     RDKit          3D

 41 43  0  0  0  0  0  0  0  0999 V2000
   -2.6392  -18.7315   14.4873 N   0  0  0  0  0  0  0  0  0  0  0  0
   -2.8111  -17.5916   14.7011 C   0  0  0  0  0  0  0  0  0  0  0  0
   -3.1196  -15.8852   15.3272 C   0  0  0  0  0  0  0  0  0  0  0  0
   -1.4179  -14.4614   15.0885 C   0  0  0  0  0  0  0  0  0  0  0  0
   -1.4591  -13.9576   13.9786 O   0  0  0  0  0  0  0  0  0  0  0  0
    0.2020  -13.9762   16.1392 N   0  0  0  0  0  0  0  0  0  0  0  0
    1.7628  -12.6534   15.6912 C   0  0  0  0  0  0  0  0  0  0  0  0
    3.4952  -11.4215   15.8455 C   0  0  0  0  0  0  0  0  0  0  0  0
    4.4183  -10.4829   14.3579 C   0  0  0  0  0  0  0  0  0  0  0  0
    5.6821   -9.9580   13.6247 C   0  0  0  0  0  0  0  0  0  0  0  0
    5.7147   -8.1301   13.6433 C   0  0  0  0  0  0  0  0  0  0  0  0
    6.4601   -7.1792   14.7086 C   0  0  0  0  0  0  0  0  0  0  0  0
    5.8907   -6.2249   16.0720 C   0  0  0  0  0  0  0  0  0  0  0  0
    4.4558   -6.0633   16.2899 C   0  0  0  0  0  0  0  0  0  0  0  0
    3.6547   -6.7428   15.1460 C   0  0  0  0  0  0  0  0  0  0  0  0
    4.3278   -7.8422   13.8508 C   0  0  0  0  0  0  0  0  0  0  0  0
    4.1622   -9.3368   13.4678 N   0  0  0  0  0  0  0  0  0  0  0  0
   -4.8719  -16.6471   14.8570 C   0  0  0  0  0  0  0  0  0  0  0  0
   -6.1159  -16.9520   15.8172 C   0  0  0  0  0  0  0  0  0  0  0  0
   -5.6846  -17.9288   16.8742 C   0  0  0  0  0  0  0  0  0  0  0  0
   -4.2685  -17.8650   16.9251 O   0  0  0  0  0  0  0  0  0  0  0  0
   -3.7425  -16.5051   16.8569 C   0  0  0  0  0  0  0  0  0  0  0  0
    0.1018  -14.3638   17.0712 H   0  0  0  0  0  0  0  0  0  0  0  0
    2.2400  -12.8665   14.7740 H   0  0  0  0  0  0  0  0  0  0  0  0
    1.3973  -12.1401   14.7140 H   0  0  0  0  0  0  0  0  0  0  0  0
    4.1774  -11.8675   16.5112 H   0  0  0  0  0  0  0  0  0  0  0  0
    3.2566  -10.5984   16.5472 H   0  0  0  0  0  0  0  0  0  0  0  0
    6.6639  -10.4124   13.5914 H   0  0  0  0  0  0  0  0  0  0  0  0
    7.5354   -7.1456   14.6093 H   0  0  0  0  0  0  0  0  0  0  0  0
    6.5724   -5.7915   16.7782 H   0  0  0  0  0  0  0  0  0  0  0  0
    3.9956   -5.6200   17.1591 H   0  0  0  0  0  0  0  0  0  0  0  0
    2.9272   -7.2993   15.7915 H   0  0  0  0  0  0  0  0  0  0  0  0
    3.4999   -9.4826   12.7270 H   0  0  0  0  0  0  0  0  0  0  0  0
   -5.3097  -16.2182   13.9470 H   0  0  0  0  0  0  0  0  0  0  0  0
   -4.7971  -17.7228   14.6167 H   0  0  0  0  0  0  0  0  0  0  0  0
   -6.9292  -17.3921   15.2248 H   0  0  0  0  0  0  0  0  0  0  0  0
   -6.5637  -16.0726   16.2882 H   0  0  0  0  0  0  0  0  0  0  0  0
   -5.9701  -18.9541   16.6207 H   0  0  0  0  0  0  0  0  0  0  0  0
   -6.1069  -17.6871   17.8549 H   0  0  0  0  0  0  0  0  0  0  0  0
   -4.5353  -15.8680   17.1331 H   0  0  0  0  0  0  0  0  0  0  0  0
   -3.0436  -16.5331   17.6472 H   0  0  0  0  0  0  0  0  0  0  0  0
  1  2  3  0
  2  3  1  0
  3  4  1  0
  4  5  2  0
  4  6  1  0
  6  7  1  0
  7  8  1  0
  8  9  1  0
  9 10  2  0
 10 11  1  0
 11 12  2  0
 12 13  1  0
 13 14  2  0
 14 15  1  0
 15 16  2  0
 16 17  1  0
  3 18  1  0
 18 19  1  0
 19 20  1  0
 20 21  1  0
 21 22  1  0
 22  3  1  0
 17  9  1  0
 16 11  1  0
  6 23  1  0
  7 24  1  0
  7 25  1  0
  8 26  1  0
  8 27  1  0
 10 28  1  0
 12 29  1  0
 13 30  1  0
 14 31  1  0
 15 32  1  0
 17 33  1  0
 18 34  1  0
 18 35  1  0
 19 36  1  0
 19 37  1  0
 20 38  1  0
 20 39  1  0
 22 40  1  0
 22 41  1  0
M  END
>  <Energy>  (641) 
1234.499742256952

>  <compound_id>  (641) 
69224

>  <target_id>  (641) 
1

>  <reference_id>  (641) 
112

>  <inspiration_ids>  (641) 
[112, 93]

>  <energy_score>  (641) 
1169.1935239334084

>  <distance_score>  (641) 
11.775924309243926

>  <path>  (641) 
/opt/xchem-fragalysis-2/maxwin/BulkDock/SCRATCH/511020/C69224-P112/C69224-P112.minimised.mol

>  <scratch_subdir>  (641) 
/opt/xchem-fragalysis-2/maxwin/BulkDock/SCRATCH/511020/C69224-P112

>  <fragmenstein_runtime>  (641) 
9.179449796676636

>  <fragmenstein_outcome>  (641) 
too moved

>  <fragmenstein_mode>  (641) 
expansion

>  <fragmenstein_error>  (641) 


$$$$
C69224-P93
     RDKit          3D

 41 43  0  0  0  0  0  0  0  0999 V2000
   -0.9731  -13.4830   17.5955 N   0  0  0  0  0  0  0  0  0  0  0  0
   -1.0702  -13.9750   16.5128 C   0  0  0  0  0  0  0  0  0  0  0  0
   -1.0476  -13.9509   14.4950 C   0  0  0  0  0  0  0  0  0  0  0  0
    0.9207  -12.8593   14.2490 C   0  0  0  0  0  0  0  0  0  0  0  0
    1.6178  -13.2345   15.0786 O   0  0  0  0  0  0  0  0  0  0  0  0
    1.8195  -11.4405   13.3276 N   0  0  0  0  0  0  0  0  0  0  0  0
    3.6802  -10.6164   13.5721 C   0  0  0  0  0  0  0  0  0  0  0  0
    5.6449  -10.9316   13.6792 C   0  0  0  0  0  0  0  0  0  0  0  0
    7.4038   -9.9558   13.6852 C   0  0  0  0  0  0  0  0  0  0  0  0
    8.6604  -10.4934   14.1488 C   0  0  0  0  0  0  0  0  0  0  0  0
    9.5869   -9.6408   15.0903 C   0  0  0  0  0  0  0  0  0  0  0  0
   10.8121  -10.1373   15.6823 C   0  0  0  0  0  0  0  0  0  0  0  0
   12.0037   -9.2324   15.8916 C   0  0  0  0  0  0  0  0  0  0  0  0
   12.1821   -7.4691   15.9522 C   0  0  0  0  0  0  0  0  0  0  0  0
   10.7069   -6.8399   15.4627 C   0  0  0  0  0  0  0  0  0  0  0  0
    9.4092   -8.1472   14.9713 C   0  0  0  0  0  0  0  0  0  0  0  0
    7.9355   -8.3984   14.0895 N   0  0  0  0  0  0  0  0  0  0  0  0
   -2.4179  -15.2928   14.9820 C   0  0  0  0  0  0  0  0  0  0  0  0
   -3.6708  -16.5982   15.1392 C   0  0  0  0  0  0  0  0  0  0  0  0
   -4.0458  -16.4511   16.5702 C   0  0  0  0  0  0  0  0  0  0  0  0
   -3.0522  -15.4855   16.9992 O   0  0  0  0  0  0  0  0  0  0  0  0
   -2.4353  -14.2293   16.1072 C   0  0  0  0  0  0  0  0  0  0  0  0
    1.2263  -11.1689   12.5224 H   0  0  0  0  0  0  0  0  0  0  0  0
    3.8504   -9.5521   13.6223 H   0  0  0  0  0  0  0  0  0  0  0  0
    3.7153  -10.8938   14.6337 H   0  0  0  0  0  0  0  0  0  0  0  0
    5.7619  -12.0110   13.8107 H   0  0  0  0  0  0  0  0  0  0  0  0
    5.6517  -10.9679   12.6587 H   0  0  0  0  0  0  0  0  0  0  0  0
    8.8864  -11.5512   14.0543 H   0  0  0  0  0  0  0  0  0  0  0  0
   11.0028  -11.2092   15.6292 H   0  0  0  0  0  0  0  0  0  0  0  0
   12.8501   -9.8896   15.6848 H   0  0  0  0  0  0  0  0  0  0  0  0
   13.0338   -6.8275   15.9522 H   0  0  0  0  0  0  0  0  0  0  0  0
   10.7912   -5.8128   15.1059 H   0  0  0  0  0  0  0  0  0  0  0  0
    7.8475   -7.7778   13.3132 H   0  0  0  0  0  0  0  0  0  0  0  0
   -2.8820  -14.7515   14.1891 H   0  0  0  0  0  0  0  0  0  0  0  0
   -1.9438  -16.1564   14.8412 H   0  0  0  0  0  0  0  0  0  0  0  0
   -3.2879  -17.6074   14.9137 H   0  0  0  0  0  0  0  0  0  0  0  0
   -4.6521  -16.5513   14.6819 H   0  0  0  0  0  0  0  0  0  0  0  0
   -5.0753  -16.1814   16.8157 H   0  0  0  0  0  0  0  0  0  0  0  0
   -3.9499  -17.3903   17.1344 H   0  0  0  0  0  0  0  0  0  0  0  0
   -3.4216  -13.9853   15.8353 H   0  0  0  0  0  0  0  0  0  0  0  0
   -2.7159  -13.3498   16.8183 H   0  0  0  0  0  0  0  0  0  0  0  0
  1  2  3  0
  2  3  1  0
  3  4  1  0
  4  5  2  0
  4  6  1  0
  6  7  1  0
  7  8  1  0
  8  9  1  0
  9 10  2  0
 10 11  1  0
 11 12  2  0
 12 13  1  0
 13 14  2  0
 14 15  1  0
 15 16  2  0
 16 17  1  0
  3 18  1  0
 18 19  1  0
 19 20  1  0
 20 21  1  0
 21 22  1  0
 22  3  1  0
 17  9  1  0
 16 11  1  0
  6 23  1  0
  7 24  1  0
  7 25  1  0
  8 26  1  0
  8 27  1  0
 10 28  1  0
 12 29  1  0
 13 30  1  0
 14 31  1  0
 15 32  1  0
 17 33  1  0
 18 34  1  0
 18 35  1  0
 19 36  1  0
 19 37  1  0
 20 38  1  0
 20 39  1  0
 22 40  1  0
 22 41  1  0
M  END
>  <Energy>  (642) 
1665.7014790180745

>  <compound_id>  (642) 
69224

>  <target_id>  (642) 
1

>  <reference_id>  (642) 
93

>  <inspiration_ids>  (642) 
[112, 93]

>  <energy_score>  (642) 
1600.3952606945263

>  <distance_score>  (642) 
11.948879650571966

>  <path>  (642) 
/opt/xchem-fragalysis-2/maxwin/BulkDock/SCRATCH/511020/C69224-P93/C69224-P93.minimised.mol

>  <scratch_subdir>  (642) 
/opt/xchem-fragalysis-2/maxwin/BulkDock/SCRATCH/511020/C69224-P93

>  <fragmenstein_runtime>  (642) 
15.121991395950317

>  <fragmenstein_outcome>  (642) 
too moved

>  <fragmenstein_mode>  (642) 
expansion

>  <fragmenstein_error>  (642) 


$$$$
C54208-P112
     RDKit          3D

 38 38  0  0  0  0  0  0  0  0999 V2000
   -5.2010  -12.2249    9.8026 C   0  0  0  0  0  0  0  0  0  0  0  0
   -4.9822  -10.7029    9.9272 C   0  0  0  0  0  0  0  0  0  0  0  0
   -3.7571  -10.1442    9.1305 C   0  0  0  0  0  0  0  0  0  0  0  0
   -3.4490   -8.5635    9.2130 C   0  0  0  0  0  0  0  0  0  0  0  0
   -1.9679   -8.0016    8.6944 C   0  0  0  0  0  0  0  0  0  0  0  0
   -1.3164   -6.4805    9.2101 C   0  0  0  0  0  0  0  0  0  0  0  0
    0.3644   -6.2872    9.5662 C   0  0  0  0  0  0  0  0  0  0  0  0
    0.9028   -5.0168   10.2213 N   0  0  0  0  0  0  0  0  0  0  0  0
    2.3781   -5.0336   10.6334 C   0  0  0  0  0  0  0  0  0  0  0  0
    2.8416   -3.7169   11.3483 C   0  0  0  0  0  0  0  0  0  0  0  0
    4.1204   -3.6747   12.1699 C   0  0  0  0  0  0  0  0  0  0  0  0
    4.9799   -2.5469   12.3271 C   0  0  0  0  0  0  0  0  0  0  0  0
    5.8147   -2.8569   13.3733 C   0  0  0  0  0  0  0  0  0  0  0  0
    5.4850   -4.1253   13.7421 N   0  0  0  0  0  0  0  0  0  0  0  0
    4.4760   -4.6512   13.0185 N   0  0  0  0  0  0  0  0  0  0  0  0
   -4.3124  -12.7768   10.1160 H   0  0  0  0  0  0  0  0  0  0  0  0
   -5.4192  -12.4917    8.7639 H   0  0  0  0  0  0  0  0  0  0  0  0
   -6.0449  -12.5369   10.4250 H   0  0  0  0  0  0  0  0  0  0  0  0
   -4.8520  -10.4509   10.9853 H   0  0  0  0  0  0  0  0  0  0  0  0
   -5.8856  -10.1857    9.5843 H   0  0  0  0  0  0  0  0  0  0  0  0
   -3.8880  -10.3877    8.0715 H   0  0  0  0  0  0  0  0  0  0  0  0
   -2.8807  -10.6745    9.4994 H   0  0  0  0  0  0  0  0  0  0  0  0
   -3.6076   -8.2180   10.2403 H   0  0  0  0  0  0  0  0  0  0  0  0
   -4.2057   -8.0460    8.6100 H   0  0  0  0  0  0  0  0  0  0  0  0
   -2.0299   -7.9345    7.6005 H   0  0  0  0  0  0  0  0  0  0  0  0
   -1.1968   -8.7381    8.8982 H   0  0  0  0  0  0  0  0  0  0  0  0
   -1.5414   -5.7648    8.4098 H   0  0  0  0  0  0  0  0  0  0  0  0
   -1.8809   -6.1552   10.0922 H   0  0  0  0  0  0  0  0  0  0  0  0
    0.8711   -6.4055    8.6026 H   0  0  0  0  0  0  0  0  0  0  0  0
    0.6473   -7.1251   10.2064 H   0  0  0  0  0  0  0  0  0  0  0  0
    0.7538   -4.2430    9.5742 H   0  0  0  0  0  0  0  0  0  0  0  0
    2.9888   -5.1895    9.7370 H   0  0  0  0  0  0  0  0  0  0  0  0
    2.5326   -5.8919   11.2882 H   0  0  0  0  0  0  0  0  0  0  0  0
    2.8916   -2.9267   10.5874 H   0  0  0  0  0  0  0  0  0  0  0  0
    2.0387   -3.4185   12.0376 H   0  0  0  0  0  0  0  0  0  0  0  0
    4.9334   -1.6042   11.7992 H   0  0  0  0  0  0  0  0  0  0  0  0
    6.6035   -2.3019   13.8626 H   0  0  0  0  0  0  0  0  0  0  0  0
    5.9026   -4.6928   14.4720 H   0  0  0  0  0  0  0  0  0  0  0  0
  1  2  1  0
  2  3  1  0
  3  4  1  0
  4  5  1  0
  5  6  1  0
  6  7  1  0
  7  8  1  0
  8  9  1  0
  9 10  1  0
 10 11  1  0
 11 12  1  0
 12 13  2  0
 13 14  1  0
 14 15  1  0
 15 11  2  0
  1 16  1  0
  1 17  1  0
  1 18  1  0
  2 19  1  0
  2 20  1  0
  3 21  1  0
  3 22  1  0
  4 23  1  0
  4 24  1  0
  5 25  1  0
  5 26  1  0
  6 27  1  0
  6 28  1  0
  7 29  1  0
  7 30  1  0
  8 31  1  0
  9 32  1  0
  9 33  1  0
 10 34  1  0
 10 35  1  0
 12 36  1  0
 13 37  1  0
 14 38  1  0
M  END
>  <Energy>  (643) 
68.131070232093123

>  <compound_id>  (643) 
54208

>  <target_id>  (643) 
1

>  <reference_id>  (643) 
112

>  <inspiration_ids>  (643) 
[112, 93]

>  <energy_score>  (643) 
32.751695995781404

>  <distance_score>  (643) 
14.076195942576057

>  <path>  (643) 
/opt/xchem-fragalysis-2/maxwin/BulkDock/SCRATCH/511020/C54208-P112/C54208-P112.minimised.mol

>  <scratch_subdir>  (643) 
/opt/xchem-fragalysis-2/maxwin/BulkDock/SCRATCH/511020/C54208-P112

>  <fragmenstein_runtime>  (643) 
10.348775148391724

>  <fragmenstein_outcome>  (643) 
too moved

>  <fragmenstein_mode>  (643) 
expansion

>  <fragmenstein_error>  (643) 


$$$$
C54208-P93
     RDKit          3D

 38 38  0  0  0  0  0  0  0  0999 V2000
   -4.0277  -17.2656   13.2672 C   0  0  0  0  0  0  0  0  0  0  0  0
   -3.3682  -16.5700   12.0592 C   0  0  0  0  0  0  0  0  0  0  0  0
   -1.9987  -16.0061   12.4396 C   0  0  0  0  0  0  0  0  0  0  0  0
   -1.2201  -15.1046   11.4211 C   0  0  0  0  0  0  0  0  0  0  0  0
   -0.0195  -14.1557   12.0541 C   0  0  0  0  0  0  0  0  0  0  0  0
    0.2036  -12.4947   11.7985 C   0  0  0  0  0  0  0  0  0  0  0  0
    1.4334  -11.1661   11.6102 C   0  0  0  0  0  0  0  0  0  0  0  0
    2.9969  -10.6819   11.7263 N   0  0  0  0  0  0  0  0  0  0  0  0
    4.0298  -10.1604   13.2696 C   0  0  0  0  0  0  0  0  0  0  0  0
    4.3725   -8.2694   13.4177 C   0  0  0  0  0  0  0  0  0  0  0  0
    5.6063   -7.2315   13.5107 C   0  0  0  0  0  0  0  0  0  0  0  0
    5.3534   -5.8169   13.5788 C   0  0  0  0  0  0  0  0  0  0  0  0
    6.3871   -5.3012   14.3115 C   0  0  0  0  0  0  0  0  0  0  0  0
    7.2580   -6.3291   14.4583 N   0  0  0  0  0  0  0  0  0  0  0  0
    6.8448   -7.5000   13.9445 N   0  0  0  0  0  0  0  0  0  0  0  0
   -3.8895  -16.6775   14.1811 H   0  0  0  0  0  0  0  0  0  0  0  0
   -5.1071  -17.3657   13.1268 H   0  0  0  0  0  0  0  0  0  0  0  0
   -3.5864  -18.2531   13.4326 H   0  0  0  0  0  0  0  0  0  0  0  0
   -3.2238  -17.2600   11.2267 H   0  0  0  0  0  0  0  0  0  0  0  0
   -4.0145  -15.7534   11.7193 H   0  0  0  0  0  0  0  0  0  0  0  0
   -1.3530  -16.8583   12.6581 H   0  0  0  0  0  0  0  0  0  0  0  0
   -2.1699  -15.4290   13.3485 H   0  0  0  0  0  0  0  0  0  0  0  0
   -0.7305  -15.7988   10.7285 H   0  0  0  0  0  0  0  0  0  0  0  0
   -1.9174  -14.5135   10.8241 H   0  0  0  0  0  0  0  0  0  0  0  0
   -0.1501  -14.2010   13.1308 H   0  0  0  0  0  0  0  0  0  0  0  0
    0.8640  -14.7185   11.8557 H   0  0  0  0  0  0  0  0  0  0  0  0
   -0.1772  -12.1933   12.7714 H   0  0  0  0  0  0  0  0  0  0  0  0
   -0.5653  -12.1768   11.1000 H   0  0  0  0  0  0  0  0  0  0  0  0
    1.2572  -10.6086   10.7031 H   0  0  0  0  0  0  0  0  0  0  0  0
    0.7363  -10.4731   12.0256 H   0  0  0  0  0  0  0  0  0  0  0  0
    2.8647   -9.7156   11.4101 H   0  0  0  0  0  0  0  0  0  0  0  0
    3.5316  -10.5448   14.1485 H   0  0  0  0  0  0  0  0  0  0  0  0
    4.9426  -10.7877   13.3103 H   0  0  0  0  0  0  0  0  0  0  0  0
    3.8500   -7.8138   12.5619 H   0  0  0  0  0  0  0  0  0  0  0  0
    3.7644   -7.9304   14.2316 H   0  0  0  0  0  0  0  0  0  0  0  0
    4.4456   -5.2966   13.3077 H   0  0  0  0  0  0  0  0  0  0  0  0
    6.5970   -4.3119   14.6928 H   0  0  0  0  0  0  0  0  0  0  0  0
    8.1697   -6.2899   14.8976 H   0  0  0  0  0  0  0  0  0  0  0  0
  1  2  1  0
  2  3  1  0
  3  4  1  0
  4  5  1  0
  5  6  1  0
  6  7  1  0
  7  8  1  0
  8  9  1  0
  9 10  1  0
 10 11  1  0
 11 12  1  0
 12 13  2  0
 13 14  1  0
 14 15  1  0
 15 11  2  0
  1 16  1  0
  1 17  1  0
  1 18  1  0
  2 19  1  0
  2 20  1  0
  3 21  1  0
  3 22  1  0
  4 23  1  0
  4 24  1  0
  5 25  1  0
  5 26  1  0
  6 27  1  0
  6 28  1  0
  7 29  1  0
  7 30  1  0
  8 31  1  0
  9 32  1  0
  9 33  1  0
 10 34  1  0
 10 35  1  0
 12 36  1  0
 13 37  1  0
 14 38  1  0
M  END
>  <Energy>  (644) 
291.41752033332477

>  <compound_id>  (644) 
54208

>  <target_id>  (644) 
1

>  <reference_id>  (644) 
93

>  <inspiration_ids>  (644) 
[112, 93]

>  <energy_score>  (644) 
256.03814609702056

>  <distance_score>  (644) 
12.32573315535248

>  <path>  (644) 
/opt/xchem-fragalysis-2/maxwin/BulkDock/SCRATCH/511020/C54208-P93/C54208-P93.minimised.mol

>  <scratch_subdir>  (644) 
/opt/xchem-fragalysis-2/maxwin/BulkDock/SCRATCH/511020/C54208-P93

>  <fragmenstein_runtime>  (644) 
11.025908470153809

>  <fragmenstein_outcome>  (644) 
too moved

>  <fragmenstein_mode>  (644) 
expansion

>  <fragmenstein_error>  (644) 


$$$$
C54222-P112
     RDKit          3D

 29 29  0  0  0  0  0  0  0  0999 V2000
    0.9060  -11.6176   10.4598 C   0  0  0  0  0  0  0  0  0  0  0  0
    0.2356  -12.9297   10.9364 C   0  0  0  0  0  0  0  0  0  0  0  0
   -1.1036  -12.7349   11.6446 C   0  0  0  0  0  0  0  0  0  0  0  0
   -0.8899  -11.7492   12.5743 F   0  0  0  0  0  0  0  0  0  0  0  0
   -1.9970  -12.2160   10.7524 F   0  0  0  0  0  0  0  0  0  0  0  0
   -1.8342  -13.9709   12.3678 C   0  0  0  0  0  0  0  0  0  0  0  0
   -2.4520  -15.2684   11.6206 C   0  0  0  0  0  0  0  0  0  0  0  0
   -3.6061  -16.0483   12.4066 C   0  0  0  0  0  0  0  0  0  0  0  0
   -3.2748  -16.3053   13.8044 N   0  0  0  0  0  0  0  0  0  0  0  0
   -4.0586  -17.3998   11.8888 C   0  0  0  0  0  0  0  0  0  0  0  0
   -3.3960  -18.5554   11.5125 C   0  0  0  0  0  0  0  0  0  0  0  0
   -4.3918  -19.5513   11.3989 C   0  0  0  0  0  0  0  0  0  0  0  0
   -5.6131  -19.0656   11.6167 N   0  0  0  0  0  0  0  0  0  0  0  0
   -5.3827  -17.7792   11.9488 N   0  0  0  0  0  0  0  0  0  0  0  0
    1.8929  -11.8212   10.0352 H   0  0  0  0  0  0  0  0  0  0  0  0
    0.3040  -11.1671    9.6648 H   0  0  0  0  0  0  0  0  0  0  0  0
    1.0117  -10.8968   11.2684 H   0  0  0  0  0  0  0  0  0  0  0  0
    0.0837  -13.5713   10.0607 H   0  0  0  0  0  0  0  0  0  0  0  0
    0.8746  -13.4820   11.6207 H   0  0  0  0  0  0  0  0  0  0  0  0
   -1.1500  -14.3391   13.1416 H   0  0  0  0  0  0  0  0  0  0  0  0
   -2.6757  -13.5122   12.9044 H   0  0  0  0  0  0  0  0  0  0  0  0
   -2.8585  -14.9424   10.6558 H   0  0  0  0  0  0  0  0  0  0  0  0
   -1.6223  -15.9527   11.4059 H   0  0  0  0  0  0  0  0  0  0  0  0
   -4.4734  -15.3750   12.4010 H   0  0  0  0  0  0  0  0  0  0  0  0
   -2.5102  -16.9808   13.8449 H   0  0  0  0  0  0  0  0  0  0  0  0
   -2.9096  -15.4633   14.2443 H   0  0  0  0  0  0  0  0  0  0  0  0
   -2.3277  -18.6872   11.4165 H   0  0  0  0  0  0  0  0  0  0  0  0
   -4.2695  -20.6042   11.1760 H   0  0  0  0  0  0  0  0  0  0  0  0
   -6.1667  -17.2163   12.2589 H   0  0  0  0  0  0  0  0  0  0  0  0
  1  2  1  0
  2  3  1  0
  3  4  1  0
  3  5  1  0
  3  6  1  0
  6  7  1  0
  7  8  1  0
  8  9  1  0
  8 10  1  0
 10 11  2  0
 11 12  1  0
 12 13  2  0
 13 14  1  0
 14 10  1  0
  1 15  1  0
  1 16  1  0
  1 17  1  0
  2 18  1  0
  2 19  1  0
  6 20  1  0
  6 21  1  0
  7 22  1  0
  7 23  1  0
  8 24  1  0
  9 25  1  0
  9 26  1  0
 11 27  1  0
 12 28  1  0
 14 29  1  0
M  END
>  <Energy>  (645) 
6.5300711240361053

>  <compound_id>  (645) 
54222

>  <target_id>  (645) 
1

>  <reference_id>  (645) 
112

>  <inspiration_ids>  (645) 
[112, 93]

>  <energy_score>  (645) 
-7.249569787485754

>  <distance_score>  (645) 
14.21563710128358

>  <path>  (645) 
/opt/xchem-fragalysis-2/maxwin/BulkDock/SCRATCH/511020/C54222-P112/C54222-P112.minimised.mol

>  <scratch_subdir>  (645) 
/opt/xchem-fragalysis-2/maxwin/BulkDock/SCRATCH/511020/C54222-P112

>  <fragmenstein_runtime>  (645) 
6.61545729637146

>  <fragmenstein_outcome>  (645) 
too moved

>  <fragmenstein_mode>  (645) 
expansion

>  <fragmenstein_error>  (645) 


$$$$
C54222-P93
     RDKit          3D

 29 29  0  0  0  0  0  0  0  0999 V2000
    4.3144   -8.5406   13.4543 C   0  0  0  0  0  0  0  0  0  0  0  0
    3.8863  -10.3424   13.0789 C   0  0  0  0  0  0  0  0  0  0  0  0
    2.8497  -10.8060   11.3765 C   0  0  0  0  0  0  0  0  0  0  0  0
    3.6339  -10.3511   10.2993 F   0  0  0  0  0  0  0  0  0  0  0  0
    1.6729  -10.1167   11.1307 F   0  0  0  0  0  0  0  0  0  0  0  0
    2.2692  -12.3058   10.5550 C   0  0  0  0  0  0  0  0  0  0  0  0
    1.0640  -13.5803   10.7425 C   0  0  0  0  0  0  0  0  0  0  0  0
   -0.3686  -13.5974   11.4349 C   0  0  0  0  0  0  0  0  0  0  0  0
   -1.3616  -12.9427   10.5887 N   0  0  0  0  0  0  0  0  0  0  0  0
   -0.9739  -14.9898   11.7299 C   0  0  0  0  0  0  0  0  0  0  0  0
   -1.2686  -16.0979   10.9461 C   0  0  0  0  0  0  0  0  0  0  0  0
   -1.9927  -16.9851   11.7753 C   0  0  0  0  0  0  0  0  0  0  0  0
   -2.1654  -16.4900   13.0011 N   0  0  0  0  0  0  0  0  0  0  0  0
   -1.4838  -15.3212   12.9728 N   0  0  0  0  0  0  0  0  0  0  0  0
    3.9816   -7.8470   12.6759 H   0  0  0  0  0  0  0  0  0  0  0  0
    3.7228   -8.1089   14.2343 H   0  0  0  0  0  0  0  0  0  0  0  0
    5.3502   -8.3021   13.7170 H   0  0  0  0  0  0  0  0  0  0  0  0
    4.8503  -10.9008   13.1724 H   0  0  0  0  0  0  0  0  0  0  0  0
    3.4356  -10.6776   14.0033 H   0  0  0  0  0  0  0  0  0  0  0  0
    1.9359  -11.8745    9.5966 H   0  0  0  0  0  0  0  0  0  0  0  0
    3.1907  -12.8478   10.2978 H   0  0  0  0  0  0  0  0  0  0  0  0
    1.6073  -14.4261   11.1664 H   0  0  0  0  0  0  0  0  0  0  0  0
    0.9103  -13.9038    9.7001 H   0  0  0  0  0  0  0  0  0  0  0  0
   -0.2858  -13.0467   12.3790 H   0  0  0  0  0  0  0  0  0  0  0  0
   -1.4526  -13.4605    9.7169 H   0  0  0  0  0  0  0  0  0  0  0  0
   -2.2735  -12.9868   11.0394 H   0  0  0  0  0  0  0  0  0  0  0  0
   -1.0267  -16.2307    9.9013 H   0  0  0  0  0  0  0  0  0  0  0  0
   -2.4060  -17.9559   11.5284 H   0  0  0  0  0  0  0  0  0  0  0  0
   -1.4191  -14.7764   13.8299 H   0  0  0  0  0  0  0  0  0  0  0  0
  1  2  1  0
  2  3  1  0
  3  4  1  0
  3  5  1  0
  3  6  1  0
  6  7  1  0
  7  8  1  0
  8  9  1  0
  8 10  1  0
 10 11  2  0
 11 12  1  0
 12 13  2  0
 13 14  1  0
 14 10  1  0
  1 15  1  0
  1 16  1  0
  1 17  1  0
  2 18  1  0
  2 19  1  0
  6 20  1  0
  6 21  1  0
  7 22  1  0
  7 23  1  0
  8 24  1  0
  9 25  1  0
  9 26  1  0
 11 27  1  0
 12 28  1  0
 14 29  1  0
M  END
>  <Energy>  (646) 
181.86994425202528

>  <compound_id>  (646) 
54222

>  <target_id>  (646) 
1

>  <reference_id>  (646) 
93

>  <inspiration_ids>  (646) 
[112, 93]

>  <energy_score>  (646) 
168.09030334050712

>  <distance_score>  (646) 
14.87047181058989

>  <path>  (646) 
/opt/xchem-fragalysis-2/maxwin/BulkDock/SCRATCH/511020/C54222-P93/C54222-P93.minimised.mol

>  <scratch_subdir>  (646) 
/opt/xchem-fragalysis-2/maxwin/BulkDock/SCRATCH/511020/C54222-P93

>  <fragmenstein_runtime>  (646) 
6.385021924972534

>  <fragmenstein_outcome>  (646) 
too moved

>  <fragmenstein_mode>  (646) 
expansion

>  <fragmenstein_error>  (646) 


$$$$
C54224-P112
     RDKit          3D

 26 26  0  0  0  0  0  0  0  0999 V2000
   -9.3674  -21.9021   13.2517 Cl  0  0  0  0  0  0  0  0  0  0  0  0
   -8.2854  -20.5933   13.8164 C   0  0  0  0  0  0  0  0  0  0  0  0
   -7.5039  -21.1624   15.3174 Cl  0  0  0  0  0  0  0  0  0  0  0  0
   -9.2027  -19.1171   14.2169 Cl  0  0  0  0  0  0  0  0  0  0  0  0
   -7.2647  -20.2587   12.7073 C   0  0  0  0  0  0  0  0  0  0  0  0
   -6.2116  -19.1891   13.0890 C   0  0  0  0  0  0  0  0  0  0  0  0
   -5.4209  -18.6923   11.9275 N   0  0  0  0  0  0  0  0  0  0  0  0
   -4.2068  -17.8846   12.3597 C   0  0  0  0  0  0  0  0  0  0  0  0
   -3.4040  -17.1441   11.1980 C   0  0  0  0  0  0  0  0  0  0  0  0
   -2.0604  -16.5291   11.4112 N   0  0  0  0  0  0  0  0  0  0  0  0
   -0.8899  -16.9675   10.8122 C   0  0  0  0  0  0  0  0  0  0  0  0
   -0.0119  -15.9088   10.7646 C   0  0  0  0  0  0  0  0  0  0  0  0
   -0.6805  -14.8793   11.4307 C   0  0  0  0  0  0  0  0  0  0  0  0
   -1.9106  -15.2436   11.8438 N   0  0  0  0  0  0  0  0  0  0  0  0
   -6.7208  -21.1684   12.4228 H   0  0  0  0  0  0  0  0  0  0  0  0
   -7.8039  -19.9166   11.8134 H   0  0  0  0  0  0  0  0  0  0  0  0
   -5.5201  -19.6304   13.8162 H   0  0  0  0  0  0  0  0  0  0  0  0
   -6.6782  -18.3211   13.5646 H   0  0  0  0  0  0  0  0  0  0  0  0
   -6.0188  -18.0831   11.3642 H   0  0  0  0  0  0  0  0  0  0  0  0
   -3.5124  -18.5635   12.8679 H   0  0  0  0  0  0  0  0  0  0  0  0
   -4.5201  -17.1231   13.0839 H   0  0  0  0  0  0  0  0  0  0  0  0
   -4.0301  -16.3359   10.7992 H   0  0  0  0  0  0  0  0  0  0  0  0
   -3.2596  -17.8639   10.3820 H   0  0  0  0  0  0  0  0  0  0  0  0
   -0.8224  -17.9679   10.4076 H   0  0  0  0  0  0  0  0  0  0  0  0
    0.9726  -15.8973   10.3205 H   0  0  0  0  0  0  0  0  0  0  0  0
   -0.3173  -13.8799   11.6403 H   0  0  0  0  0  0  0  0  0  0  0  0
  1  2  1  0
  2  3  1  0
  2  4  1  0
  2  5  1  0
  5  6  1  0
  6  7  1  0
  7  8  1  0
  8  9  1  0
  9 10  1  0
 10 11  1  0
 11 12  2  0
 12 13  1  0
 13 14  2  0
 14 10  1  0
  5 15  1  0
  5 16  1  0
  6 17  1  0
  6 18  1  0
  7 19  1  0
  8 20  1  0
  8 21  1  0
  9 22  1  0
  9 23  1  0
 11 24  1  0
 12 25  1  0
 13 26  1  0
M  END
>  <Energy>  (647) 
30.828080700521884

>  <compound_id>  (647) 
54224

>  <target_id>  (647) 
1

>  <reference_id>  (647) 
112

>  <inspiration_ids>  (647) 
[112, 93]

>  <energy_score>  (647) 
-2.2746875012236103

>  <distance_score>  (647) 
16.44097000849238

>  <path>  (647) 
/opt/xchem-fragalysis-2/maxwin/BulkDock/SCRATCH/511020/C54224-P112/C54224-P112.minimised.mol

>  <scratch_subdir>  (647) 
/opt/xchem-fragalysis-2/maxwin/BulkDock/SCRATCH/511020/C54224-P112

>  <fragmenstein_runtime>  (647) 
8.211257696151733

>  <fragmenstein_outcome>  (647) 
too moved

>  <fragmenstein_mode>  (647) 
expansion

>  <fragmenstein_error>  (647) 


$$$$
C54224-P93
     RDKit          3D

 26 26  0  0  0  0  0  0  0  0999 V2000
   -5.0238  -15.8094   16.1063 Cl  0  0  0  0  0  0  0  0  0  0  0  0
   -3.5829  -15.8354   17.2576 C   0  0  0  0  0  0  0  0  0  0  0  0
   -3.2019  -17.5924   17.3593 Cl  0  0  0  0  0  0  0  0  0  0  0  0
   -4.1819  -15.2694   18.8500 Cl  0  0  0  0  0  0  0  0  0  0  0  0
   -2.4237  -14.8690   16.7247 C   0  0  0  0  0  0  0  0  0  0  0  0
   -1.2281  -14.1677   17.7025 C   0  0  0  0  0  0  0  0  0  0  0  0
    0.6509  -13.8182   17.6784 N   0  0  0  0  0  0  0  0  0  0  0  0
    2.0171  -15.0414   17.9460 C   0  0  0  0  0  0  0  0  0  0  0  0
    3.6706  -15.1674   17.8600 C   0  0  0  0  0  0  0  0  0  0  0  0
    4.8738  -15.9565   18.1995 N   0  0  0  0  0  0  0  0  0  0  0  0
    5.1951  -17.2130   17.7411 C   0  0  0  0  0  0  0  0  0  0  0  0
    6.5628  -17.3542   17.8459 C   0  0  0  0  0  0  0  0  0  0  0  0
    7.0262  -16.1481   18.3755 C   0  0  0  0  0  0  0  0  0  0  0  0
    6.0369  -15.2804   18.5527 N   0  0  0  0  0  0  0  0  0  0  0  0
   -2.0394  -15.2254   15.7812 H   0  0  0  0  0  0  0  0  0  0  0  0
   -2.9972  -13.9854   16.4866 H   0  0  0  0  0  0  0  0  0  0  0  0
   -1.5829  -13.1383   17.8530 H   0  0  0  0  0  0  0  0  0  0  0  0
   -1.4085  -14.7806   18.5931 H   0  0  0  0  0  0  0  0  0  0  0  0
    0.7636  -13.6757   16.6408 H   0  0  0  0  0  0  0  0  0  0  0  0
    1.9411  -15.3598   16.9260 H   0  0  0  0  0  0  0  0  0  0  0  0
    1.8169  -15.7844   18.7246 H   0  0  0  0  0  0  0  0  0  0  0  0
    3.7039  -15.5895   16.8607 H   0  0  0  0  0  0  0  0  0  0  0  0
    3.9734  -14.1560   18.0705 H   0  0  0  0  0  0  0  0  0  0  0  0
    4.4301  -17.8764   17.3646 H   0  0  0  0  0  0  0  0  0  0  0  0
    7.1404  -18.2270   17.5790 H   0  0  0  0  0  0  0  0  0  0  0  0
    8.0383  -15.8561   18.6215 H   0  0  0  0  0  0  0  0  0  0  0  0
  1  2  1  0
  2  3  1  0
  2  4  1  0
  2  5  1  0
  5  6  1  0
  6  7  1  0
  7  8  1  0
  8  9  1  0
  9 10  1  0
 10 11  1  0
 11 12  2  0
 12 13  1  0
 13 14  2  0
 14 10  1  0
  5 15  1  0
  5 16  1  0
  6 17  1  0
  6 18  1  0
  7 19  1  0
  8 20  1  0
  8 21  1  0
  9 22  1  0
  9 23  1  0
 11 24  1  0
 12 25  1  0
 13 26  1  0
M  END
>  <Energy>  (648) 
238.38463187675055

>  <compound_id>  (648) 
54224

>  <target_id>  (648) 
1

>  <reference_id>  (648) 
93

>  <inspiration_ids>  (648) 
[112, 93]

>  <energy_score>  (648) 
205.28186367500572

>  <distance_score>  (648) 
16.720140428194963

>  <path>  (648) 
/opt/xchem-fragalysis-2/maxwin/BulkDock/SCRATCH/511020/C54224-P93/C54224-P93.minimised.mol

>  <scratch_subdir>  (648) 
/opt/xchem-fragalysis-2/maxwin/BulkDock/SCRATCH/511020/C54224-P93

>  <fragmenstein_runtime>  (648) 
6.63944935798645

>  <fragmenstein_outcome>  (648) 
too moved

>  <fragmenstein_mode>  (648) 
expansion

>  <fragmenstein_error>  (648) 


$$$$
C54235-P112
     RDKit          3D

 34 34  0  0  0  0  0  0  0  0999 V2000
   -1.1662  -13.7583   14.0966 C   0  0  0  0  0  0  0  0  0  0  0  0
   -1.1517  -14.0441   15.3959 C   0  0  0  0  0  0  0  0  0  0  0  0
   -0.3404  -13.5419   16.9547 C   0  0  0  0  0  0  0  0  0  0  0  0
   -1.3172  -12.1594   17.8821 C   0  0  0  0  0  0  0  0  0  0  0  0
   -1.6312  -14.2296   17.6843 C   0  0  0  0  0  0  0  0  0  0  0  0
    1.7072  -13.0877   16.4008 C   0  0  0  0  0  0  0  0  0  0  0  0
    3.3032  -11.5014   16.5276 C   0  0  0  0  0  0  0  0  0  0  0  0
    5.0097  -10.3164   15.8968 C   0  0  0  0  0  0  0  0  0  0  0  0
    6.6369   -9.0917   16.0092 N   0  0  0  0  0  0  0  0  0  0  0  0
    8.1021   -8.0041   15.1084 C   0  0  0  0  0  0  0  0  0  0  0  0
    9.9077   -6.9731   15.2421 C   0  0  0  0  0  0  0  0  0  0  0  0
   11.2923   -6.1488   16.2030 C   0  0  0  0  0  0  0  0  0  0  0  0
   12.4529   -5.5967   15.7218 C   0  0  0  0  0  0  0  0  0  0  0  0
   11.7168   -4.9740   14.8372 N   0  0  0  0  0  0  0  0  0  0  0  0
   10.5035   -5.4702   14.6795 N   0  0  0  0  0  0  0  0  0  0  0  0
   -0.6283  -13.4905   13.1814 H   0  0  0  0  0  0  0  0  0  0  0  0
   -1.0419  -11.1211   17.9343 H   0  0  0  0  0  0  0  0  0  0  0  0
   -1.4046  -12.2429   18.9762 H   0  0  0  0  0  0  0  0  0  0  0  0
   -2.3755  -12.1212   17.5885 H   0  0  0  0  0  0  0  0  0  0  0  0
   -2.0894  -13.7249   18.5185 H   0  0  0  0  0  0  0  0  0  0  0  0
   -2.5465  -14.1618   17.0721 H   0  0  0  0  0  0  0  0  0  0  0  0
   -1.6541  -15.1181   18.2583 H   0  0  0  0  0  0  0  0  0  0  0  0
    2.1244  -13.5220   17.4711 H   0  0  0  0  0  0  0  0  0  0  0  0
    1.8264  -14.1776   16.1665 H   0  0  0  0  0  0  0  0  0  0  0  0
    3.8725  -11.9044   17.3885 H   0  0  0  0  0  0  0  0  0  0  0  0
    3.5715  -11.6886   15.4530 H   0  0  0  0  0  0  0  0  0  0  0  0
    4.5075   -9.6900   15.1479 H   0  0  0  0  0  0  0  0  0  0  0  0
    5.5912  -11.1152   15.4170 H   0  0  0  0  0  0  0  0  0  0  0  0
    6.1716   -8.3080   16.4841 H   0  0  0  0  0  0  0  0  0  0  0  0
    8.4313   -8.7925   14.4187 H   0  0  0  0  0  0  0  0  0  0  0  0
    7.4742   -7.2626   14.5982 H   0  0  0  0  0  0  0  0  0  0  0  0
   10.9872   -5.4867   17.0131 H   0  0  0  0  0  0  0  0  0  0  0  0
   13.3114   -5.1193   16.1640 H   0  0  0  0  0  0  0  0  0  0  0  0
   11.9303   -4.1190   14.3403 H   0  0  0  0  0  0  0  0  0  0  0  0
  1  2  3  0
  2  3  1  0
  3  4  1  0
  3  5  1  0
  3  6  1  0
  6  7  1  0
  7  8  1  0
  8  9  1  0
  9 10  1  0
 10 11  1  0
 11 12  1  0
 12 13  2  0
 13 14  1  0
 14 15  1  0
 15 11  2  0
  1 16  1  0
  4 17  1  0
  4 18  1  0
  4 19  1  0
  5 20  1  0
  5 21  1  0
  5 22  1  0
  6 23  1  0
  6 24  1  0
  7 25  1  0
  7 26  1  0
  8 27  1  0
  8 28  1  0
  9 29  1  0
 10 30  1  0
 10 31  1  0
 12 32  1  0
 13 33  1  0
 14 34  1  0
M  END
>  <Energy>  (649) 
1405.3040651376948

>  <compound_id>  (649) 
54235

>  <target_id>  (649) 
1

>  <reference_id>  (649) 
112

>  <inspiration_ids>  (649) 
[112, 93]

>  <energy_score>  (649) 
1328.8735746441714

>  <distance_score>  (649) 
11.653125576370318

>  <path>  (649) 
/opt/xchem-fragalysis-2/maxwin/BulkDock/SCRATCH/511020/C54235-P112/C54235-P112.minimised.mol

>  <scratch_subdir>  (649) 
/opt/xchem-fragalysis-2/maxwin/BulkDock/SCRATCH/511020/C54235-P112

>  <fragmenstein_runtime>  (649) 
9.024606943130493

>  <fragmenstein_outcome>  (649) 
too moved

>  <fragmenstein_mode>  (649) 
expansion

>  <fragmenstein_error>  (649) 


$$$$
C54235-P93
     RDKit          3D

 34 34  0  0  0  0  0  0  0  0999 V2000
    3.2842  -13.5986   19.5683 C   0  0  0  0  0  0  0  0  0  0  0  0
    3.7508  -12.5629   19.1682 C   0  0  0  0  0  0  0  0  0  0  0  0
    4.5867  -11.4653   18.5504 C   0  0  0  0  0  0  0  0  0  0  0  0
    5.8018  -12.2009   17.9590 C   0  0  0  0  0  0  0  0  0  0  0  0
    3.8579  -10.7527   17.4263 C   0  0  0  0  0  0  0  0  0  0  0  0
    5.1058  -10.3378   19.5943 C   0  0  0  0  0  0  0  0  0  0  0  0
    5.7926   -8.9726   19.0469 C   0  0  0  0  0  0  0  0  0  0  0  0
    6.4267   -8.0841   20.1788 C   0  0  0  0  0  0  0  0  0  0  0  0
    6.8105   -6.6900   19.8045 N   0  0  0  0  0  0  0  0  0  0  0  0
    7.3246   -5.9374   20.9823 C   0  0  0  0  0  0  0  0  0  0  0  0
    8.7403   -6.2586   21.4063 C   0  0  0  0  0  0  0  0  0  0  0  0
    9.7530   -5.3301   21.7494 C   0  0  0  0  0  0  0  0  0  0  0  0
   10.8375   -6.0696   22.1456 C   0  0  0  0  0  0  0  0  0  0  0  0
   10.4317   -7.3630   22.0755 N   0  0  0  0  0  0  0  0  0  0  0  0
    9.1676   -7.5094   21.6389 N   0  0  0  0  0  0  0  0  0  0  0  0
    3.0235  -14.5638   19.9300 H   0  0  0  0  0  0  0  0  0  0  0  0
    6.3527  -11.5713   17.2517 H   0  0  0  0  0  0  0  0  0  0  0  0
    5.5420  -13.1319   17.4640 H   0  0  0  0  0  0  0  0  0  0  0  0
    6.5056  -12.4789   18.7542 H   0  0  0  0  0  0  0  0  0  0  0  0
    3.0208  -10.1744   17.8227 H   0  0  0  0  0  0  0  0  0  0  0  0
    3.5537  -11.4292   16.6465 H   0  0  0  0  0  0  0  0  0  0  0  0
    4.5146  -10.0317   16.9244 H   0  0  0  0  0  0  0  0  0  0  0  0
    5.8113  -10.8123   20.2890 H   0  0  0  0  0  0  0  0  0  0  0  0
    4.2445  -10.0299   20.2028 H   0  0  0  0  0  0  0  0  0  0  0  0
    5.0205   -8.3903   18.5317 H   0  0  0  0  0  0  0  0  0  0  0  0
    6.5658   -9.2344   18.3171 H   0  0  0  0  0  0  0  0  0  0  0  0
    7.2937   -8.6378   20.5466 H   0  0  0  0  0  0  0  0  0  0  0  0
    5.6983   -8.0322   20.9975 H   0  0  0  0  0  0  0  0  0  0  0  0
    5.9546   -6.2328   19.4901 H   0  0  0  0  0  0  0  0  0  0  0  0
    6.6520   -6.0687   21.8392 H   0  0  0  0  0  0  0  0  0  0  0  0
    7.2806   -4.8707   20.7295 H   0  0  0  0  0  0  0  0  0  0  0  0
    9.7064   -4.2594   21.7078 H   0  0  0  0  0  0  0  0  0  0  0  0
   11.8280   -5.7890   22.4735 H   0  0  0  0  0  0  0  0  0  0  0  0
   10.9574   -8.1984   22.3091 H   0  0  0  0  0  0  0  0  0  0  0  0
  1  2  3  0
  2  3  1  0
  3  4  1  0
  3  5  1  0
  3  6  1  0
  6  7  1  0
  7  8  1  0
  8  9  1  0
  9 10  1  0
 10 11  1  0
 11 12  1  0
 12 13  2  0
 13 14  1  0
 14 15  1  0
 15 11  2  0
  1 16  1  0
  4 17  1  0
  4 18  1  0
  4 19  1  0
  5 20  1  0
  5 21  1  0
  5 22  1  0
  6 23  1  0
  6 24  1  0
  7 25  1  0
  7 26  1  0
  8 27  1  0
  8 28  1  0
  9 29  1  0
 10 30  1  0
 10 31  1  0
 12 32  1  0
 13 33  1  0
 14 34  1  0
M  END
>  <Energy>  (650) 
54.243008875026746

>  <compound_id>  (650) 
54235

>  <target_id>  (650) 
1

>  <reference_id>  (650) 
93

>  <inspiration_ids>  (650) 
[112, 93]

>  <energy_score>  (650) 
-22.187481618499376

>  <distance_score>  (650) 
14.127227031263489

>  <path>  (650) 
/opt/xchem-fragalysis-2/maxwin/BulkDock/SCRATCH/511020/C54235-P93/C54235-P93.minimised.mol

>  <scratch_subdir>  (650) 
/opt/xchem-fragalysis-2/maxwin/BulkDock/SCRATCH/511020/C54235-P93

>  <fragmenstein_runtime>  (650) 
8.347014904022217

>  <fragmenstein_outcome>  (650) 
too moved

>  <fragmenstein_mode>  (650) 
expansion

>  <fragmenstein_error>  (650) 


$$$$
C54257-P112
     RDKit          3D

 39 41  0  0  0  0  0  0  0  0999 V2000
   -5.0122  -15.6513   18.7504 C   0  0  0  0  0  0  0  0  0  0  0  0
   -4.3219  -14.3577   19.2952 C   0  0  0  0  0  0  0  0  0  0  0  0
   -5.4089  -13.2508   19.2468 C   0  0  0  0  0  0  0  0  0  0  0  0
   -3.9964  -14.6177   20.7646 C   0  0  0  0  0  0  0  0  0  0  0  0
   -4.6308  -14.2353   21.7376 O   0  0  0  0  0  0  0  0  0  0  0  0
   -2.9319  -15.4205   20.9689 O   0  0  0  0  0  0  0  0  0  0  0  0
   -3.0872  -13.9029   18.6153 N   0  0  0  0  0  0  0  0  0  0  0  0
   -2.2448  -14.5148   17.7066 C   0  0  0  0  0  0  0  0  0  0  0  0
   -0.9318  -14.0059   16.9847 C   0  0  0  0  0  0  0  0  0  0  0  0
    0.5388  -13.3321   17.1099 N   0  0  0  0  0  0  0  0  0  0  0  0
    1.7366  -12.5587   15.7646 C   0  0  0  0  0  0  0  0  0  0  0  0
    1.6455  -12.5438   14.5208 O   0  0  0  0  0  0  0  0  0  0  0  0
    3.3144  -11.3887   16.3537 C   0  0  0  0  0  0  0  0  0  0  0  0
    3.0632  -10.1948   17.3267 C   0  0  0  0  0  0  0  0  0  0  0  0
    3.0843   -8.7002   17.5644 C   0  0  0  0  0  0  0  0  0  0  0  0
    3.8441   -7.9826   16.6839 C   0  0  0  0  0  0  0  0  0  0  0  0
    4.3422   -8.7260   15.5829 C   0  0  0  0  0  0  0  0  0  0  0  0
    5.3355   -8.2969   14.6490 C   0  0  0  0  0  0  0  0  0  0  0  0
    5.5035   -9.2953   13.7471 C   0  0  0  0  0  0  0  0  0  0  0  0
    4.4793  -10.1798   13.9948 N   0  0  0  0  0  0  0  0  0  0  0  0
    3.9918  -10.1783   15.3133 C   0  0  0  0  0  0  0  0  0  0  0  0
   -1.7217  -12.6662   17.7837 C   0  0  0  0  0  0  0  0  0  0  0  0
   -2.7999  -12.6418   18.5659 N   0  0  0  0  0  0  0  0  0  0  0  0
   -4.3002  -16.4589   18.5982 H   0  0  0  0  0  0  0  0  0  0  0  0
   -5.7643  -16.0169   19.4602 H   0  0  0  0  0  0  0  0  0  0  0  0
   -5.5236  -15.4801   17.8040 H   0  0  0  0  0  0  0  0  0  0  0  0
   -5.6594  -12.9840   18.2144 H   0  0  0  0  0  0  0  0  0  0  0  0
   -5.0895  -12.3375   19.7632 H   0  0  0  0  0  0  0  0  0  0  0  0
   -6.3335  -13.5803   19.7364 H   0  0  0  0  0  0  0  0  0  0  0  0
   -2.8785  -15.4988   21.9451 H   0  0  0  0  0  0  0  0  0  0  0  0
   -2.8978  -15.3116   17.3726 H   0  0  0  0  0  0  0  0  0  0  0  0
    0.9216  -13.2562   18.0361 H   0  0  0  0  0  0  0  0  0  0  0  0
    4.1526  -10.0599   17.4118 H   0  0  0  0  0  0  0  0  0  0  0  0
    2.5376   -8.2763   18.3961 H   0  0  0  0  0  0  0  0  0  0  0  0
    4.0485   -6.9275   16.8114 H   0  0  0  0  0  0  0  0  0  0  0  0
    5.8892   -7.3811   14.6834 H   0  0  0  0  0  0  0  0  0  0  0  0
    6.1054   -9.3722   12.8535 H   0  0  0  0  0  0  0  0  0  0  0  0
    3.7475  -10.1337   13.3151 H   0  0  0  0  0  0  0  0  0  0  0  0
   -1.2295  -11.7175   17.8959 H   0  0  0  0  0  0  0  0  0  0  0  0
  1  2  1  0
  2  3  1  0
  2  4  1  0
  4  5  2  0
  4  6  1  0
  2  7  1  0
  7  8  1  0
  8  9  2  0
  9 10  1  0
 10 11  1  0
 11 12  2  0
 11 13  1  0
 13 14  2  0
 14 15  1  0
 15 16  2  0
 16 17  1  0
 17 18  1  0
 18 19  2  0
 19 20  1  0
 20 21  1  0
  9 22  1  0
 22 23  2  0
 23  7  1  0
 21 13  1  0
 21 17  2  0
  1 24  1  0
  1 25  1  0
  1 26  1  0
  3 27  1  0
  3 28  1  0
  3 29  1  0
  6 30  1  0
  8 31  1  0
 10 32  1  0
 14 33  1  0
 15 34  1  0
 16 35  1  0
 18 36  1  0
 19 37  1  0
 20 38  1  0
 22 39  1  0
M  END
>  <Energy>  (651) 
579.55819976800547

>  <compound_id>  (651) 
54257

>  <target_id>  (651) 
1

>  <reference_id>  (651) 
112

>  <inspiration_ids>  (651) 
[112, 93]

>  <energy_score>  (651) 
479.60175410889406

>  <distance_score>  (651) 
14.118217456828614

>  <path>  (651) 
/opt/xchem-fragalysis-2/maxwin/BulkDock/SCRATCH/511020/C54257-P112/C54257-P112.minimised.mol

>  <scratch_subdir>  (651) 
/opt/xchem-fragalysis-2/maxwin/BulkDock/SCRATCH/511020/C54257-P112

>  <fragmenstein_runtime>  (651) 
22.326180934906006

>  <fragmenstein_outcome>  (651) 
too moved

>  <fragmenstein_mode>  (651) 
expansion

>  <fragmenstein_error>  (651) 


$$$$
C54257-P93
     RDKit          3D

 39 41  0  0  0  0  0  0  0  0999 V2000
    1.5854  -18.5571   10.6145 C   0  0  0  0  0  0  0  0  0  0  0  0
    2.3431  -19.5531   11.5288 C   0  0  0  0  0  0  0  0  0  0  0  0
    2.8014  -20.7477   10.6790 C   0  0  0  0  0  0  0  0  0  0  0  0
    1.2888  -19.9559   12.5443 C   0  0  0  0  0  0  0  0  0  0  0  0
    0.4714  -19.1753   13.0139 O   0  0  0  0  0  0  0  0  0  0  0  0
    1.2527  -21.2407   12.9394 O   0  0  0  0  0  0  0  0  0  0  0  0
    3.4964  -18.9914   12.2539 N   0  0  0  0  0  0  0  0  0  0  0  0
    4.3875  -17.9738   11.9098 C   0  0  0  0  0  0  0  0  0  0  0  0
    5.3121  -17.8292   12.9385 C   0  0  0  0  0  0  0  0  0  0  0  0
    6.3837  -16.9371   13.2022 N   0  0  0  0  0  0  0  0  0  0  0  0
    6.8140  -15.7117   12.5075 C   0  0  0  0  0  0  0  0  0  0  0  0
    6.4126  -15.2038   11.4962 O   0  0  0  0  0  0  0  0  0  0  0  0
    7.9539  -14.9258   13.2215 C   0  0  0  0  0  0  0  0  0  0  0  0
    8.9867  -15.5762   13.9230 C   0  0  0  0  0  0  0  0  0  0  0  0
   10.0329  -14.8822   14.5576 C   0  0  0  0  0  0  0  0  0  0  0  0
   10.1044  -13.4914   14.5395 C   0  0  0  0  0  0  0  0  0  0  0  0
    9.1167  -12.7891   13.8402 C   0  0  0  0  0  0  0  0  0  0  0  0
    8.8979  -11.3994   13.6637 C   0  0  0  0  0  0  0  0  0  0  0  0
    7.8118  -11.2626   12.8397 C   0  0  0  0  0  0  0  0  0  0  0  0
    7.3497  -12.5220   12.5352 N   0  0  0  0  0  0  0  0  0  0  0  0
    8.0924  -13.4973   13.1790 C   0  0  0  0  0  0  0  0  0  0  0  0
    4.9457  -18.9148   13.7894 C   0  0  0  0  0  0  0  0  0  0  0  0
    3.9170  -19.6428   13.3630 N   0  0  0  0  0  0  0  0  0  0  0  0
    2.2184  -18.2390    9.7781 H   0  0  0  0  0  0  0  0  0  0  0  0
    0.6775  -19.0045   10.1927 H   0  0  0  0  0  0  0  0  0  0  0  0
    1.2933  -17.6494   11.1557 H   0  0  0  0  0  0  0  0  0  0  0  0
    3.5071  -20.4308    9.9024 H   0  0  0  0  0  0  0  0  0  0  0  0
    1.9520  -21.2346   10.1860 H   0  0  0  0  0  0  0  0  0  0  0  0
    3.3060  -21.5096   11.2847 H   0  0  0  0  0  0  0  0  0  0  0  0
    0.6106  -21.2044   13.6961 H   0  0  0  0  0  0  0  0  0  0  0  0
    4.2668  -17.4405   10.9795 H   0  0  0  0  0  0  0  0  0  0  0  0
    6.8887  -17.0190   14.0728 H   0  0  0  0  0  0  0  0  0  0  0  0
    9.0250  -16.6641   13.9468 H   0  0  0  0  0  0  0  0  0  0  0  0
   10.8111  -15.4440   15.0723 H   0  0  0  0  0  0  0  0  0  0  0  0
   10.9122  -12.9697   15.0448 H   0  0  0  0  0  0  0  0  0  0  0  0
    9.4809  -10.6073   14.1079 H   0  0  0  0  0  0  0  0  0  0  0  0
    7.3162  -10.3865   12.4420 H   0  0  0  0  0  0  0  0  0  0  0  0
    6.5704  -12.7275   11.9204 H   0  0  0  0  0  0  0  0  0  0  0  0
    5.4250  -19.2242   14.7030 H   0  0  0  0  0  0  0  0  0  0  0  0
  1  2  1  0
  2  3  1  0
  2  4  1  0
  4  5  2  0
  4  6  1  0
  2  7  1  0
  7  8  1  0
  8  9  2  0
  9 10  1  0
 10 11  1  0
 11 12  2  0
 11 13  1  0
 13 14  2  0
 14 15  1  0
 15 16  2  0
 16 17  1  0
 17 18  1  0
 18 19  2  0
 19 20  1  0
 20 21  1  0
  9 22  1  0
 22 23  2  0
 23  7  1  0
 21 13  1  0
 21 17  2  0
  1 24  1  0
  1 25  1  0
  1 26  1  0
  3 27  1  0
  3 28  1  0
  3 29  1  0
  6 30  1  0
  8 31  1  0
 10 32  1  0
 14 33  1  0
 15 34  1  0
 16 35  1  0
 18 36  1  0
 19 37  1  0
 20 38  1  0
 22 39  1  0
M  END
>  <Energy>  (652) 
46.56566794473818

>  <compound_id>  (652) 
54257

>  <target_id>  (652) 
1

>  <reference_id>  (652) 
93

>  <inspiration_ids>  (652) 
[112, 93]

>  <energy_score>  (652) 
-53.39077771436564

>  <distance_score>  (652) 
15.065216236439456

>  <path>  (652) 
/opt/xchem-fragalysis-2/maxwin/BulkDock/SCRATCH/511020/C54257-P93/C54257-P93.minimised.mol

>  <scratch_subdir>  (652) 
/opt/xchem-fragalysis-2/maxwin/BulkDock/SCRATCH/511020/C54257-P93

>  <fragmenstein_runtime>  (652) 
25.40666699409485

>  <fragmenstein_outcome>  (652) 
too moved

>  <fragmenstein_mode>  (652) 
expansion

>  <fragmenstein_error>  (652) 


$$$$
C33761-P112
     RDKit          3D

 43 46  0  0  0  0  0  0  0  0999 V2000
   10.4232  -17.3867   16.1638 C   0  0  0  0  0  0  0  0  0  0  0  0
    9.6506  -16.6341   15.0668 C   0  0  0  0  0  0  0  0  0  0  0  0
    8.9146  -17.7412   14.1451 C   0  0  0  0  0  0  0  0  0  0  0  0
    7.3613  -18.1457   14.4982 C   0  0  0  0  0  0  0  0  0  0  0  0
    6.8437  -17.6755   15.4738 O   0  0  0  0  0  0  0  0  0  0  0  0
    6.8340  -19.0947   13.4907 N   0  0  0  0  0  0  0  0  0  0  0  0
    5.5372  -19.6550   13.3267 C   0  0  0  0  0  0  0  0  0  0  0  0
    5.2433  -20.8032   12.5234 C   0  0  0  0  0  0  0  0  0  0  0  0
    3.9530  -21.1387   12.4575 N   0  0  0  0  0  0  0  0  0  0  0  0
    3.3451  -20.1643   13.1612 N   0  0  0  0  0  0  0  0  0  0  0  0
    1.8504  -20.0000   13.0745 C   0  0  0  0  0  0  0  0  0  0  0  0
    0.9019  -21.1191   12.6479 C   0  0  0  0  0  0  0  0  0  0  0  0
    1.1485  -19.9732   11.7238 C   0  0  0  0  0  0  0  0  0  0  0  0
    4.2638  -19.3055   13.7706 C   0  0  0  0  0  0  0  0  0  0  0  0
   10.6437  -15.5537   14.4266 C   0  0  0  0  0  0  0  0  0  0  0  0
   11.3675  -15.6613   13.2515 C   0  0  0  0  0  0  0  0  0  0  0  0
   12.0896  -14.5085   13.0318 N   0  0  0  0  0  0  0  0  0  0  0  0
   11.8697  -13.5917   14.0280 C   0  0  0  0  0  0  0  0  0  0  0  0
   12.3266  -12.2638   14.1641 C   0  0  0  0  0  0  0  0  0  0  0  0
   11.9311  -11.5456   15.2940 C   0  0  0  0  0  0  0  0  0  0  0  0
   11.1673  -12.1576   16.2746 C   0  0  0  0  0  0  0  0  0  0  0  0
   10.7550  -13.4934   16.1215 C   0  0  0  0  0  0  0  0  0  0  0  0
   11.0392  -14.2303   14.9549 C   0  0  0  0  0  0  0  0  0  0  0  0
    9.7713  -18.0875   16.6948 H   0  0  0  0  0  0  0  0  0  0  0  0
   11.2548  -17.9573   15.7348 H   0  0  0  0  0  0  0  0  0  0  0  0
   10.8485  -16.6957   16.8992 H   0  0  0  0  0  0  0  0  0  0  0  0
    8.8650  -16.0424   15.5414 H   0  0  0  0  0  0  0  0  0  0  0  0
    8.9544  -17.4448   13.0952 H   0  0  0  0  0  0  0  0  0  0  0  0
    9.4802  -18.6807   14.2074 H   0  0  0  0  0  0  0  0  0  0  0  0
    7.5742  -19.3412   12.8474 H   0  0  0  0  0  0  0  0  0  0  0  0
    5.9503  -21.4159   11.9802 H   0  0  0  0  0  0  0  0  0  0  0  0
    1.4924  -19.2981   13.8186 H   0  0  0  0  0  0  0  0  0  0  0  0
   -0.0831  -21.1816   13.0835 H   0  0  0  0  0  0  0  0  0  0  0  0
    1.3376  -22.0795   12.3976 H   0  0  0  0  0  0  0  0  0  0  0  0
    0.3797  -19.2280   11.5810 H   0  0  0  0  0  0  0  0  0  0  0  0
    1.7469  -20.1566   10.8384 H   0  0  0  0  0  0  0  0  0  0  0  0
    3.9076  -18.4855   14.3784 H   0  0  0  0  0  0  0  0  0  0  0  0
   11.4276  -16.4696   12.5354 H   0  0  0  0  0  0  0  0  0  0  0  0
   12.6828  -14.3470   12.2301 H   0  0  0  0  0  0  0  0  0  0  0  0
   12.9452  -11.8036   13.4005 H   0  0  0  0  0  0  0  0  0  0  0  0
   12.2238  -10.5095   15.4186 H   0  0  0  0  0  0  0  0  0  0  0  0
   10.8697  -11.6064   17.1631 H   0  0  0  0  0  0  0  0  0  0  0  0
   10.1912  -13.9858   16.8979 H   0  0  0  0  0  0  0  0  0  0  0  0
  1  2  1  0
  2  3  1  0
  3  4  1  0
  4  5  2  0
  4  6  1  0
  6  7  1  0
  7  8  1  0
  8  9  2  0
  9 10  1  0
 10 11  1  0
 11 12  1  0
 12 13  1  0
 10 14  1  0
  2 15  1  0
 15 16  2  0
 16 17  1  0
 17 18  1  0
 18 19  2  0
 19 20  1  0
 20 21  2  0
 21 22  1  0
 22 23  2  0
 14  7  2  0
 23 15  1  0
 13 11  1  0
 23 18  1  0
  1 24  1  0
  1 25  1  0
  1 26  1  0
  2 27  1  0
  3 28  1  0
  3 29  1  0
  6 30  1  0
  8 31  1  0
 11 32  1  0
 12 33  1  0
 12 34  1  0
 13 35  1  0
 13 36  1  0
 14 37  1  0
 16 38  1  0
 17 39  1  0
 19 40  1  0
 20 41  1  0
 21 42  1  0
 22 43  1  0
M  END
>  <Energy>  (653) 
55.589368439874882

>  <compound_id>  (653) 
33761

>  <target_id>  (653) 
1

>  <reference_id>  (653) 
112

>  <inspiration_ids>  (653) 
[112, 93]

>  <energy_score>  (653) 
-13.00499025089988

>  <distance_score>  (653) 
14.637328027774132

>  <path>  (653) 
/opt/xchem-fragalysis-2/maxwin/BulkDock/SCRATCH/511020/C33761-P112/C33761-P112.minimised.mol

>  <scratch_subdir>  (653) 
/opt/xchem-fragalysis-2/maxwin/BulkDock/SCRATCH/511020/C33761-P112

>  <fragmenstein_runtime>  (653) 
19.933019876480103

>  <fragmenstein_outcome>  (653) 
too moved

>  <fragmenstein_mode>  (653) 
expansion

>  <fragmenstein_error>  (653) 


$$$$
C33761-P93
     RDKit          3D

 43 46  0  0  0  0  0  0  0  0999 V2000
    4.4214  -11.4236   14.4824 C   0  0  0  0  0  0  0  0  0  0  0  0
    3.0881  -10.8546   13.8570 C   0  0  0  0  0  0  0  0  0  0  0  0
    1.2818  -12.1730   14.0979 C   0  0  0  0  0  0  0  0  0  0  0  0
   -0.3031  -13.5779   13.7856 C   0  0  0  0  0  0  0  0  0  0  0  0
   -0.3545  -13.9341   12.6044 O   0  0  0  0  0  0  0  0  0  0  0  0
   -1.3438  -14.2177   15.3163 N   0  0  0  0  0  0  0  0  0  0  0  0
   -2.5627  -15.2763   15.4282 C   0  0  0  0  0  0  0  0  0  0  0  0
   -3.2016  -15.2183   16.8526 C   0  0  0  0  0  0  0  0  0  0  0  0
   -4.0983  -16.1889   17.1675 N   0  0  0  0  0  0  0  0  0  0  0  0
   -4.2432  -16.8701   15.9984 N   0  0  0  0  0  0  0  0  0  0  0  0
   -5.3457  -17.8565   15.7521 C   0  0  0  0  0  0  0  0  0  0  0  0
   -5.0568  -19.3071   15.4406 C   0  0  0  0  0  0  0  0  0  0  0  0
   -5.7397  -18.9450   16.7237 C   0  0  0  0  0  0  0  0  0  0  0  0
   -3.3943  -16.4125   14.9720 C   0  0  0  0  0  0  0  0  0  0  0  0
    4.2009   -9.1729   13.5375 C   0  0  0  0  0  0  0  0  0  0  0  0
    4.0085   -7.8015   13.5675 C   0  0  0  0  0  0  0  0  0  0  0  0
    4.2365   -7.0345   12.2713 N   0  0  0  0  0  0  0  0  0  0  0  0
    5.6993   -7.1549   12.4787 C   0  0  0  0  0  0  0  0  0  0  0  0
    6.7929   -7.1780   11.6588 C   0  0  0  0  0  0  0  0  0  0  0  0
    7.8265   -7.8987   12.2300 C   0  0  0  0  0  0  0  0  0  0  0  0
    7.7671   -8.4785   13.4816 C   0  0  0  0  0  0  0  0  0  0  0  0
    6.7839   -8.0425   14.2122 C   0  0  0  0  0  0  0  0  0  0  0  0
    5.5843   -8.0693   13.6247 C   0  0  0  0  0  0  0  0  0  0  0  0
    4.8648  -12.3342   14.0977 H   0  0  0  0  0  0  0  0  0  0  0  0
    4.1348  -11.5376   15.5177 H   0  0  0  0  0  0  0  0  0  0  0  0
    5.2675  -10.7976   14.2690 H   0  0  0  0  0  0  0  0  0  0  0  0
    3.0315  -10.7963   12.7355 H   0  0  0  0  0  0  0  0  0  0  0  0
    1.5978  -12.5594   15.1059 H   0  0  0  0  0  0  0  0  0  0  0  0
    1.5268  -13.1612   13.7656 H   0  0  0  0  0  0  0  0  0  0  0  0
   -1.0238  -13.7966   16.1721 H   0  0  0  0  0  0  0  0  0  0  0  0
   -2.9229  -14.5017   17.6145 H   0  0  0  0  0  0  0  0  0  0  0  0
   -6.1623  -17.3927   15.2078 H   0  0  0  0  0  0  0  0  0  0  0  0
   -4.0309  -19.6561   15.5007 H   0  0  0  0  0  0  0  0  0  0  0  0
   -5.6350  -19.7903   14.6655 H   0  0  0  0  0  0  0  0  0  0  0  0
   -6.7907  -19.1852   16.8259 H   0  0  0  0  0  0  0  0  0  0  0  0
   -5.1725  -19.0349   17.6433 H   0  0  0  0  0  0  0  0  0  0  0  0
   -3.5677  -16.9210   14.0560 H   0  0  0  0  0  0  0  0  0  0  0  0
    3.7201   -7.1756   14.4467 H   0  0  0  0  0  0  0  0  0  0  0  0
    3.8406   -6.1512   11.9694 H   0  0  0  0  0  0  0  0  0  0  0  0
    6.7721   -6.8665   10.6108 H   0  0  0  0  0  0  0  0  0  0  0  0
    8.6179   -8.1280   11.5108 H   0  0  0  0  0  0  0  0  0  0  0  0
    8.3650   -9.2317   13.9836 H   0  0  0  0  0  0  0  0  0  0  0  0
    6.8295   -7.4251   15.0972 H   0  0  0  0  0  0  0  0  0  0  0  0
  1  2  1  0
  2  3  1  0
  3  4  1  0
  4  5  2  0
  4  6  1  0
  6  7  1  0
  7  8  1  0
  8  9  2  0
  9 10  1  0
 10 11  1  0
 11 12  1  0
 12 13  1  0
 10 14  1  0
  2 15  1  0
 15 16  2  0
 16 17  1  0
 17 18  1  0
 18 19  2  0
 19 20  1  0
 20 21  2  0
 21 22  1  0
 22 23  2  0
 14  7  2  0
 23 15  1  0
 13 11  1  0
 23 18  1  0
  1 24  1  0
  1 25  1  0
  1 26  1  0
  2 27  1  0
  3 28  1  0
  3 29  1  0
  6 30  1  0
  8 31  1  0
 11 32  1  0
 12 33  1  0
 12 34  1  0
 13 35  1  0
 13 36  1  0
 14 37  1  0
 16 38  1  0
 17 39  1  0
 19 40  1  0
 20 41  1  0
 21 42  1  0
 22 43  1  0
M  END
>  <Energy>  (654) 
967.80920211472949

>  <compound_id>  (654) 
33761

>  <target_id>  (654) 
1

>  <reference_id>  (654) 
93

>  <inspiration_ids>  (654) 
[112, 93]

>  <energy_score>  (654) 
899.2148434239552

>  <distance_score>  (654) 
11.438939067068263

>  <path>  (654) 
/opt/xchem-fragalysis-2/maxwin/BulkDock/SCRATCH/511020/C33761-P93/C33761-P93.minimised.mol

>  <scratch_subdir>  (654) 
/opt/xchem-fragalysis-2/maxwin/BulkDock/SCRATCH/511020/C33761-P93

>  <fragmenstein_runtime>  (654) 
19.4794602394104

>  <fragmenstein_outcome>  (654) 
too moved

>  <fragmenstein_mode>  (654) 
expansion

>  <fragmenstein_error>  (654) 


$$$$
C33762-P112
     RDKit          3D

 44 46  0  0  0  0  0  0  0  0999 V2000
    1.1242  -21.2234   13.2082 N   0  0  0  0  0  0  0  0  0  0  0  0
    1.7981  -20.0087   13.7638 C   0  0  0  0  0  0  0  0  0  0  0  0
    2.4383  -20.1192   15.1934 C   0  0  0  0  0  0  0  0  0  0  0  0
    2.8769  -18.8336   15.7719 N   0  0  0  0  0  0  0  0  0  0  0  0
    2.6089  -18.2154   16.9992 C   0  0  0  0  0  0  0  0  0  0  0  0
    2.8108  -16.7833   17.0194 C   0  0  0  0  0  0  0  0  0  0  0  0
    2.7481  -15.5749   16.2280 N   0  0  0  0  0  0  0  0  0  0  0  0
    1.8013  -14.1334   16.4162 C   0  0  0  0  0  0  0  0  0  0  0  0
    0.9315  -13.9235   17.2400 O   0  0  0  0  0  0  0  0  0  0  0  0
    2.3273  -12.4881   15.1628 C   0  0  0  0  0  0  0  0  0  0  0  0
    4.2162  -11.3862   15.0085 C   0  0  0  0  0  0  0  0  0  0  0  0
    6.0792  -10.6454   14.2211 C   0  0  0  0  0  0  0  0  0  0  0  0
    8.1538  -10.1938   14.7801 C   0  0  0  0  0  0  0  0  0  0  0  0
    9.2598  -11.2317   15.3016 C   0  0  0  0  0  0  0  0  0  0  0  0
   10.5950  -10.9513   15.5435 N   0  0  0  0  0  0  0  0  0  0  0  0
   10.8167   -9.6490   15.7163 C   0  0  0  0  0  0  0  0  0  0  0  0
   12.0268   -8.7520   15.9310 C   0  0  0  0  0  0  0  0  0  0  0  0
   12.2863   -6.9947   16.0966 C   0  0  0  0  0  0  0  0  0  0  0  0
   11.1250   -6.1730   15.8874 C   0  0  0  0  0  0  0  0  0  0  0  0
    9.7794   -7.3118   15.3054 C   0  0  0  0  0  0  0  0  0  0  0  0
    9.6523   -9.0932   15.2386 C   0  0  0  0  0  0  0  0  0  0  0  0
    4.1002  -17.2714   16.2509 C   0  0  0  0  0  0  0  0  0  0  0  0
    4.0639  -18.3454   15.4457 N   0  0  0  0  0  0  0  0  0  0  0  0
    0.7889  -20.9858   12.2746 H   0  0  0  0  0  0  0  0  0  0  0  0
    1.8305  -21.9456   13.0815 H   0  0  0  0  0  0  0  0  0  0  0  0
    1.1045  -19.1689   13.7162 H   0  0  0  0  0  0  0  0  0  0  0  0
    2.6025  -19.7445   13.0649 H   0  0  0  0  0  0  0  0  0  0  0  0
    1.8394  -20.6205   15.9551 H   0  0  0  0  0  0  0  0  0  0  0  0
    3.3480  -20.7297   15.1078 H   0  0  0  0  0  0  0  0  0  0  0  0
    2.1446  -18.8520   17.7412 H   0  0  0  0  0  0  0  0  0  0  0  0
    3.3025  -15.4963   15.4476 H   0  0  0  0  0  0  0  0  0  0  0  0
    1.5944  -12.2660   14.3560 H   0  0  0  0  0  0  0  0  0  0  0  0
    2.3466  -11.9604   16.1344 H   0  0  0  0  0  0  0  0  0  0  0  0
    3.9932  -10.9143   15.9602 H   0  0  0  0  0  0  0  0  0  0  0  0
    3.7934  -10.5644   14.3892 H   0  0  0  0  0  0  0  0  0  0  0  0
    6.1337  -11.4094   13.4336 H   0  0  0  0  0  0  0  0  0  0  0  0
    5.5913   -9.7487   13.9296 H   0  0  0  0  0  0  0  0  0  0  0  0
    9.0966  -12.2834   15.5021 H   0  0  0  0  0  0  0  0  0  0  0  0
   11.2709  -11.6707   15.7460 H   0  0  0  0  0  0  0  0  0  0  0  0
   12.8359   -9.3131   15.5074 H   0  0  0  0  0  0  0  0  0  0  0  0
   13.1932   -6.5239   15.7177 H   0  0  0  0  0  0  0  0  0  0  0  0
   11.1926   -5.1182   15.6300 H   0  0  0  0  0  0  0  0  0  0  0  0
    8.8138   -6.8911   14.9659 H   0  0  0  0  0  0  0  0  0  0  0  0
    4.9419  -16.6350   16.0403 H   0  0  0  0  0  0  0  0  0  0  0  0
  1  2  1  0
  2  3  1  0
  3  4  1  0
  4  5  1  0
  5  6  2  0
  6  7  1  0
  7  8  1  0
  8  9  2  0
  8 10  1  0
 10 11  1  0
 11 12  1  0
 12 13  1  0
 13 14  2  0
 14 15  1  0
 15 16  1  0
 16 17  2  0
 17 18  1  0
 18 19  2  0
 19 20  1  0
 20 21  2  0
  6 22  1  0
 22 23  2  0
 23  4  1  0
 21 13  1  0
 21 16  1  0
  1 24  1  0
  1 25  1  0
  2 26  1  0
  2 27  1  0
  3 28  1  0
  3 29  1  0
  5 30  1  0
  7 31  1  0
 10 32  1  0
 10 33  1  0
 11 34  1  0
 11 35  1  0
 12 36  1  0
 12 37  1  0
 14 38  1  0
 15 39  1  0
 17 40  1  0
 18 41  1  0
 19 42  1  0
 20 43  1  0
 22 44  1  0
M  END
>  <Energy>  (655) 
1038.0010802757859

>  <compound_id>  (655) 
33762

>  <target_id>  (655) 
1

>  <reference_id>  (655) 
112

>  <inspiration_ids>  (655) 
[112, 93]

>  <energy_score>  (655) 
976.4800165353947

>  <distance_score>  (655) 
13.469162466204454

>  <path>  (655) 
/opt/xchem-fragalysis-2/maxwin/BulkDock/SCRATCH/511020/C33762-P112/C33762-P112.minimised.mol

>  <scratch_subdir>  (655) 
/opt/xchem-fragalysis-2/maxwin/BulkDock/SCRATCH/511020/C33762-P112

>  <fragmenstein_runtime>  (655) 
20.552520751953125

>  <fragmenstein_outcome>  (655) 
too moved

>  <fragmenstein_mode>  (655) 
expansion

>  <fragmenstein_error>  (655) 


$$$$
C33762-P93
     RDKit          3D

 44 46  0  0  0  0  0  0  0  0999 V2000
   -8.8771  -16.2979   14.5180 N   0  0  0  0  0  0  0  0  0  0  0  0
   -7.5412  -16.3987   15.1442 C   0  0  0  0  0  0  0  0  0  0  0  0
   -6.3597  -16.1167   14.1792 C   0  0  0  0  0  0  0  0  0  0  0  0
   -5.0713  -15.7502   14.7928 N   0  0  0  0  0  0  0  0  0  0  0  0
   -3.9951  -15.1310   14.1686 C   0  0  0  0  0  0  0  0  0  0  0  0
   -2.9023  -14.9902   15.0674 C   0  0  0  0  0  0  0  0  0  0  0  0
   -1.3248  -14.2502   15.2436 N   0  0  0  0  0  0  0  0  0  0  0  0
    0.0207  -13.6981   13.9124 C   0  0  0  0  0  0  0  0  0  0  0  0
   -0.0169  -13.8567   12.6951 O   0  0  0  0  0  0  0  0  0  0  0  0
    1.7711  -12.6982   14.7886 C   0  0  0  0  0  0  0  0  0  0  0  0
    3.8292  -11.6720   14.9603 C   0  0  0  0  0  0  0  0  0  0  0  0
    5.7792  -10.8788   14.3200 C   0  0  0  0  0  0  0  0  0  0  0  0
    7.8878  -10.4529   14.8630 C   0  0  0  0  0  0  0  0  0  0  0  0
    9.0488  -11.5195   15.2771 C   0  0  0  0  0  0  0  0  0  0  0  0
   10.2831  -11.2791   15.8233 N   0  0  0  0  0  0  0  0  0  0  0  0
   10.6334  -10.0117   15.7534 C   0  0  0  0  0  0  0  0  0  0  0  0
   11.9702   -9.2946   15.8841 C   0  0  0  0  0  0  0  0  0  0  0  0
   12.3090   -7.5273   15.9626 C   0  0  0  0  0  0  0  0  0  0  0  0
   11.1942   -6.6434   15.7424 C   0  0  0  0  0  0  0  0  0  0  0  0
    9.7396   -7.6446   15.3048 C   0  0  0  0  0  0  0  0  0  0  0  0
    9.4121   -9.4036   15.4514 C   0  0  0  0  0  0  0  0  0  0  0  0
   -3.6705  -15.2762   16.2810 C   0  0  0  0  0  0  0  0  0  0  0  0
   -4.8930  -15.8052   16.1212 N   0  0  0  0  0  0  0  0  0  0  0  0
   -8.8814  -16.7286   13.5973 H   0  0  0  0  0  0  0  0  0  0  0  0
   -9.5481  -16.8081   15.0916 H   0  0  0  0  0  0  0  0  0  0  0  0
   -7.5287  -15.6818   15.9726 H   0  0  0  0  0  0  0  0  0  0  0  0
   -7.4124  -17.3936   15.5837 H   0  0  0  0  0  0  0  0  0  0  0  0
   -6.6131  -15.2738   13.5244 H   0  0  0  0  0  0  0  0  0  0  0  0
   -6.1609  -16.9924   13.5514 H   0  0  0  0  0  0  0  0  0  0  0  0
   -4.1060  -14.8235   13.1369 H   0  0  0  0  0  0  0  0  0  0  0  0
   -1.0208  -14.0115   16.1732 H   0  0  0  0  0  0  0  0  0  0  0  0
    1.3247  -11.9725   14.1301 H   0  0  0  0  0  0  0  0  0  0  0  0
    1.5985  -12.7990   15.8147 H   0  0  0  0  0  0  0  0  0  0  0  0
    4.4446  -12.4949   14.6698 H   0  0  0  0  0  0  0  0  0  0  0  0
    3.8027  -11.4409   16.0261 H   0  0  0  0  0  0  0  0  0  0  0  0
    5.3232   -9.9534   14.0137 H   0  0  0  0  0  0  0  0  0  0  0  0
    5.8879  -11.5595   13.4716 H   0  0  0  0  0  0  0  0  0  0  0  0
    8.9226  -12.5862   15.3385 H   0  0  0  0  0  0  0  0  0  0  0  0
   10.8944  -12.0064   16.1542 H   0  0  0  0  0  0  0  0  0  0  0  0
   12.7845   -9.9934   15.6749 H   0  0  0  0  0  0  0  0  0  0  0  0
   13.2602   -7.0620   15.7932 H   0  0  0  0  0  0  0  0  0  0  0  0
   11.2838   -5.5627   15.8234 H   0  0  0  0  0  0  0  0  0  0  0  0
    8.8567   -7.1246   14.8594 H   0  0  0  0  0  0  0  0  0  0  0  0
   -3.3214  -15.1201   17.2918 H   0  0  0  0  0  0  0  0  0  0  0  0
  1  2  1  0
  2  3  1  0
  3  4  1  0
  4  5  1  0
  5  6  2  0
  6  7  1  0
  7  8  1  0
  8  9  2  0
  8 10  1  0
 10 11  1  0
 11 12  1  0
 12 13  1  0
 13 14  2  0
 14 15  1  0
 15 16  1  0
 16 17  2  0
 17 18  1  0
 18 19  2  0
 19 20  1  0
 20 21  2  0
  6 22  1  0
 22 23  2  0
 23  4  1  0
 21 13  1  0
 21 16  1  0
  1 24  1  0
  1 25  1  0
  2 26  1  0
  2 27  1  0
  3 28  1  0
  3 29  1  0
  5 30  1  0
  7 31  1  0
 10 32  1  0
 10 33  1  0
 11 34  1  0
 11 35  1  0
 12 36  1  0
 12 37  1  0
 14 38  1  0
 15 39  1  0
 17 40  1  0
 18 41  1  0
 19 42  1  0
 20 43  1  0
 22 44  1  0
M  END
>  <Energy>  (656) 
1224.2037403452653

>  <compound_id>  (656) 
33762

>  <target_id>  (656) 
1

>  <reference_id>  (656) 
93

>  <inspiration_ids>  (656) 
[112, 93]

>  <energy_score>  (656) 
1162.6826766048705

>  <distance_score>  (656) 
10.231218968431998

>  <path>  (656) 
/opt/xchem-fragalysis-2/maxwin/BulkDock/SCRATCH/511020/C33762-P93/C33762-P93.minimised.mol

>  <scratch_subdir>  (656) 
/opt/xchem-fragalysis-2/maxwin/BulkDock/SCRATCH/511020/C33762-P93

>  <fragmenstein_runtime>  (656) 
17.90352463722229

>  <fragmenstein_outcome>  (656) 
too moved

>  <fragmenstein_mode>  (656) 
expansion

>  <fragmenstein_error>  (656) 


$$$$
C33763-P112
     RDKit          3D

 39 41  0  0  0  0  0  0  0  0999 V2000
   -1.9144  -11.4191    9.7508 C   0  0  0  0  0  0  0  0  0  0  0  0
   -1.0385  -12.5987    9.6013 C   0  0  0  0  0  0  0  0  0  0  0  0
   -1.6474  -13.7714    9.3137 N   0  0  0  0  0  0  0  0  0  0  0  0
   -0.6541  -14.6564    9.3353 N   0  0  0  0  0  0  0  0  0  0  0  0
    0.5707  -14.0779    9.5071 C   0  0  0  0  0  0  0  0  0  0  0  0
    0.3950  -12.7172    9.7372 C   0  0  0  0  0  0  0  0  0  0  0  0
    1.4762  -11.9118   10.1798 N   0  0  0  0  0  0  0  0  0  0  0  0
    1.5226  -10.5243   10.5987 C   0  0  0  0  0  0  0  0  0  0  0  0
    0.6694   -9.6770   10.5992 O   0  0  0  0  0  0  0  0  0  0  0  0
    3.1306  -10.1475   11.3313 C   0  0  0  0  0  0  0  0  0  0  0  0
    4.2041   -9.9400   13.0591 C   0  0  0  0  0  0  0  0  0  0  0  0
    5.9008   -9.7623   13.9139 C   0  0  0  0  0  0  0  0  0  0  0  0
    6.9361   -8.0436   14.5206 C   0  0  0  0  0  0  0  0  0  0  0  0
    8.2110   -9.3362   15.3284 C   0  0  0  0  0  0  0  0  0  0  0  0
    9.6950   -8.7170   15.4598 N   0  0  0  0  0  0  0  0  0  0  0  0
    9.7437   -7.1166   15.2595 C   0  0  0  0  0  0  0  0  0  0  0  0
   11.0891   -5.8652   15.5978 C   0  0  0  0  0  0  0  0  0  0  0  0
   11.2356   -4.4671   15.2930 C   0  0  0  0  0  0  0  0  0  0  0  0
   10.0832   -3.8853   14.8031 C   0  0  0  0  0  0  0  0  0  0  0  0
    8.7028   -4.8192   14.5668 C   0  0  0  0  0  0  0  0  0  0  0  0
    8.3124   -6.6229   14.7253 C   0  0  0  0  0  0  0  0  0  0  0  0
   -1.7644  -10.7390    8.9055 H   0  0  0  0  0  0  0  0  0  0  0  0
   -2.9761  -11.6862    9.7728 H   0  0  0  0  0  0  0  0  0  0  0  0
   -1.6818  -10.8670   10.6649 H   0  0  0  0  0  0  0  0  0  0  0  0
   -0.8704  -15.6374    9.1958 H   0  0  0  0  0  0  0  0  0  0  0  0
    1.4486  -14.7039    9.5099 H   0  0  0  0  0  0  0  0  0  0  0  0
    2.3916  -12.2993   10.2402 H   0  0  0  0  0  0  0  0  0  0  0  0
    3.0560   -9.0976   10.9724 H   0  0  0  0  0  0  0  0  0  0  0  0
    2.4265  -10.5397   12.0536 H   0  0  0  0  0  0  0  0  0  0  0  0
    4.9590  -10.6576   12.6683 H   0  0  0  0  0  0  0  0  0  0  0  0
    3.6292  -10.3120   13.8986 H   0  0  0  0  0  0  0  0  0  0  0  0
    5.2838  -10.1961   14.6843 H   0  0  0  0  0  0  0  0  0  0  0  0
    6.3798  -10.6949   13.7907 H   0  0  0  0  0  0  0  0  0  0  0  0
    8.4371  -10.3111   14.9707 H   0  0  0  0  0  0  0  0  0  0  0  0
   10.4742   -9.3044   15.7220 H   0  0  0  0  0  0  0  0  0  0  0  0
   11.9747   -6.2930   16.1100 H   0  0  0  0  0  0  0  0  0  0  0  0
   12.1335   -3.9185   15.5377 H   0  0  0  0  0  0  0  0  0  0  0  0
   10.0114   -2.8093   14.6402 H   0  0  0  0  0  0  0  0  0  0  0  0
    8.4393   -5.1287   13.6502 H   0  0  0  0  0  0  0  0  0  0  0  0
  1  2  1  0
  2  3  2  0
  3  4  1  0
  4  5  1  0
  5  6  2  0
  6  7  1  0
  7  8  1  0
  8  9  2  0
  8 10  1  0
 10 11  1  0
 11 12  1  0
 12 13  1  0
 13 14  2  0
 14 15  1  0
 15 16  1  0
 16 17  2  0
 17 18  1  0
 18 19  2  0
 19 20  1  0
 20 21  2  0
  6  2  1  0
 21 13  1  0
 21 16  1  0
  1 22  1  0
  1 23  1  0
  1 24  1  0
  4 25  1  0
  5 26  1  0
  7 27  1  0
 10 28  1  0
 10 29  1  0
 11 30  1  0
 11 31  1  0
 12 32  1  0
 12 33  1  0
 14 34  1  0
 15 35  1  0
 17 36  1  0
 18 37  1  0
 19 38  1  0
 20 39  1  0
M  END
>  <Energy>  (657) 
894.87430975653433

>  <compound_id>  (657) 
33763

>  <target_id>  (657) 
1

>  <reference_id>  (657) 
112

>  <inspiration_ids>  (657) 
[112, 93]

>  <energy_score>  (657) 
860.534849289832

>  <distance_score>  (657) 
12.227746389519048

>  <path>  (657) 
/opt/xchem-fragalysis-2/maxwin/BulkDock/SCRATCH/511020/C33763-P112/C33763-P112.minimised.mol

>  <scratch_subdir>  (657) 
/opt/xchem-fragalysis-2/maxwin/BulkDock/SCRATCH/511020/C33763-P112

>  <fragmenstein_runtime>  (657) 
13.549410104751587

>  <fragmenstein_outcome>  (657) 
too moved

>  <fragmenstein_mode>  (657) 
expansion

>  <fragmenstein_error>  (657) 


$$$$
C33763-P93
     RDKit          3D

 39 41  0  0  0  0  0  0  0  0999 V2000
   -4.5939  -15.5643   14.0141 C   0  0  0  0  0  0  0  0  0  0  0  0
   -3.9699  -15.7946   15.4069 C   0  0  0  0  0  0  0  0  0  0  0  0
   -4.8387  -16.5460   16.1229 N   0  0  0  0  0  0  0  0  0  0  0  0
   -5.5189  -15.5241   16.6342 N   0  0  0  0  0  0  0  0  0  0  0  0
   -4.7179  -14.3586   16.6415 C   0  0  0  0  0  0  0  0  0  0  0  0
   -3.3834  -14.6813   16.3629 C   0  0  0  0  0  0  0  0  0  0  0  0
   -1.8573  -14.5514   16.3161 N   0  0  0  0  0  0  0  0  0  0  0  0
   -0.7075  -13.4444   17.1603 C   0  0  0  0  0  0  0  0  0  0  0  0
   -1.0605  -12.6533   18.0076 O   0  0  0  0  0  0  0  0  0  0  0  0
    1.3498  -13.4706   16.4616 C   0  0  0  0  0  0  0  0  0  0  0  0
    3.0526  -12.0021   16.0099 C   0  0  0  0  0  0  0  0  0  0  0  0
    4.7552  -11.4538   14.7363 C   0  0  0  0  0  0  0  0  0  0  0  0
    6.6921  -10.6460   14.2420 C   0  0  0  0  0  0  0  0  0  0  0  0
    8.4032  -10.9062   14.3941 C   0  0  0  0  0  0  0  0  0  0  0  0
    8.5667  -10.9844   16.2283 N   0  0  0  0  0  0  0  0  0  0  0  0
    9.1663  -12.1517   15.8061 C   0  0  0  0  0  0  0  0  0  0  0  0
   10.4828  -12.6134   16.0590 C   0  0  0  0  0  0  0  0  0  0  0  0
   11.5836  -11.7943   16.0765 C   0  0  0  0  0  0  0  0  0  0  0  0
   11.4078  -10.4829   15.7681 C   0  0  0  0  0  0  0  0  0  0  0  0
   10.1455   -9.9659   15.3806 C   0  0  0  0  0  0  0  0  0  0  0  0
    8.5246  -10.7099   15.2355 C   0  0  0  0  0  0  0  0  0  0  0  0
   -5.6024  -15.1368   14.1013 H   0  0  0  0  0  0  0  0  0  0  0  0
   -4.7349  -16.5184   13.5127 H   0  0  0  0  0  0  0  0  0  0  0  0
   -4.0506  -14.8483   13.4081 H   0  0  0  0  0  0  0  0  0  0  0  0
   -6.4589  -15.6559   16.9961 H   0  0  0  0  0  0  0  0  0  0  0  0
   -5.2436  -13.5044   17.0499 H   0  0  0  0  0  0  0  0  0  0  0  0
   -1.4094  -15.0080   15.6677 H   0  0  0  0  0  0  0  0  0  0  0  0
    1.4787  -14.5242   16.2765 H   0  0  0  0  0  0  0  0  0  0  0  0
    1.6729  -13.9484   17.5145 H   0  0  0  0  0  0  0  0  0  0  0  0
    3.0638  -11.2680   16.8232 H   0  0  0  0  0  0  0  0  0  0  0  0
    2.2891  -12.4749   15.2624 H   0  0  0  0  0  0  0  0  0  0  0  0
    4.9797  -12.3530   14.1660 H   0  0  0  0  0  0  0  0  0  0  0  0
    4.2521  -10.7337   14.0780 H   0  0  0  0  0  0  0  0  0  0  0  0
    9.3651  -11.0655   13.6845 H   0  0  0  0  0  0  0  0  0  0  0  0
    7.8450  -10.8460   16.9564 H   0  0  0  0  0  0  0  0  0  0  0  0
   10.6293  -13.6834   16.1946 H   0  0  0  0  0  0  0  0  0  0  0  0
   12.5738  -12.1909   16.2789 H   0  0  0  0  0  0  0  0  0  0  0  0
   12.2760   -9.8441   15.7337 H   0  0  0  0  0  0  0  0  0  0  0  0
    9.9885   -8.9309   15.3571 H   0  0  0  0  0  0  0  0  0  0  0  0
  1  2  1  0
  2  3  2  0
  3  4  1  0
  4  5  1  0
  5  6  2  0
  6  7  1  0
  7  8  1  0
  8  9  2  0
  8 10  1  0
 10 11  1  0
 11 12  1  0
 12 13  1  0
 13 14  2  0
 14 15  1  0
 15 16  1  0
 16 17  2  0
 17 18  1  0
 18 19  2  0
 19 20  1  0
 20 21  2  0
  6  2  1  0
 21 13  1  0
 21 16  1  0
  1 22  1  0
  1 23  1  0
  1 24  1  0
  4 25  1  0
  5 26  1  0
  7 27  1  0
 10 28  1  0
 10 29  1  0
 11 30  1  0
 11 31  1  0
 12 32  1  0
 12 33  1  0
 14 34  1  0
 15 35  1  0
 17 36  1  0
 18 37  1  0
 19 38  1  0
 20 39  1  0
M  END
>  <Energy>  (658) 
1672.8161449280321

>  <compound_id>  (658) 
33763

>  <target_id>  (658) 
1

>  <reference_id>  (658) 
93

>  <inspiration_ids>  (658) 
[112, 93]

>  <energy_score>  (658) 
1638.4766844613316

>  <distance_score>  (658) 
11.03780915271346

>  <path>  (658) 
/opt/xchem-fragalysis-2/maxwin/BulkDock/SCRATCH/511020/C33763-P93/C33763-P93.minimised.mol

>  <scratch_subdir>  (658) 
/opt/xchem-fragalysis-2/maxwin/BulkDock/SCRATCH/511020/C33763-P93

>  <fragmenstein_runtime>  (658) 
27.21034812927246

>  <fragmenstein_outcome>  (658) 
too moved

>  <fragmenstein_mode>  (658) 
expansion

>  <fragmenstein_error>  (658) 


$$$$
C33764-P112
     RDKit          3D

 36 38  0  0  0  0  0  0  0  0999 V2000
    7.2099  -20.2002   16.3579 O   0  0  0  0  0  0  0  0  0  0  0  0
    6.6982  -19.4935   15.5257 C   0  0  0  0  0  0  0  0  0  0  0  0
    7.5157  -18.2167   15.0605 C   0  0  0  0  0  0  0  0  0  0  0  0
    8.9993  -18.0196   15.6470 C   0  0  0  0  0  0  0  0  0  0  0  0
    9.6048  -16.5821   15.4068 C   0  0  0  0  0  0  0  0  0  0  0  0
   10.9110  -16.0634   16.0805 C   0  0  0  0  0  0  0  0  0  0  0  0
   12.0093  -16.8560   16.3525 C   0  0  0  0  0  0  0  0  0  0  0  0
   13.0199  -16.0940   16.8704 N   0  0  0  0  0  0  0  0  0  0  0  0
   12.6489  -14.7791   16.9503 C   0  0  0  0  0  0  0  0  0  0  0  0
   13.3933  -13.6890   17.4193 C   0  0  0  0  0  0  0  0  0  0  0  0
   12.7963  -12.4358   17.4248 C   0  0  0  0  0  0  0  0  0  0  0  0
   11.5068  -12.2694   16.9487 C   0  0  0  0  0  0  0  0  0  0  0  0
   10.7889  -13.3851   16.4662 C   0  0  0  0  0  0  0  0  0  0  0  0
   11.3381  -14.6946   16.4712 C   0  0  0  0  0  0  0  0  0  0  0  0
    5.3789  -19.5957   14.8477 N   0  0  0  0  0  0  0  0  0  0  0  0
    4.3034  -20.4934   15.0456 C   0  0  0  0  0  0  0  0  0  0  0  0
    4.2193  -21.4238   16.0635 C   0  0  0  0  0  0  0  0  0  0  0  0
    3.0252  -22.0815   15.9444 N   0  0  0  0  0  0  0  0  0  0  0  0
    2.3473  -21.7567   14.8439 N   0  0  0  0  0  0  0  0  0  0  0  0
    3.0500  -20.7288   14.3418 C   0  0  0  0  0  0  0  0  0  0  0  0
    2.4183  -19.9832   12.9504 Cl  0  0  0  0  0  0  0  0  0  0  0  0
    6.9106  -17.3539   15.3557 H   0  0  0  0  0  0  0  0  0  0  0  0
    7.5797  -18.2407   13.9673 H   0  0  0  0  0  0  0  0  0  0  0  0
    9.0262  -18.2759   16.7089 H   0  0  0  0  0  0  0  0  0  0  0  0
    9.6495  -18.7588   15.1616 H   0  0  0  0  0  0  0  0  0  0  0  0
    8.8240  -15.8487   15.5933 H   0  0  0  0  0  0  0  0  0  0  0  0
    9.8359  -16.5690   14.3444 H   0  0  0  0  0  0  0  0  0  0  0  0
   12.1577  -17.9185   16.2101 H   0  0  0  0  0  0  0  0  0  0  0  0
   13.9215  -16.4505   17.1545 H   0  0  0  0  0  0  0  0  0  0  0  0
   14.4039  -13.8210   17.7950 H   0  0  0  0  0  0  0  0  0  0  0  0
   13.3779  -11.6227   17.8307 H   0  0  0  0  0  0  0  0  0  0  0  0
   11.0342  -11.2894   16.9378 H   0  0  0  0  0  0  0  0  0  0  0  0
    9.7979  -13.2087   16.0652 H   0  0  0  0  0  0  0  0  0  0  0  0
    5.3107  -18.8723   14.1404 H   0  0  0  0  0  0  0  0  0  0  0  0
    4.8888  -21.6585   16.8767 H   0  0  0  0  0  0  0  0  0  0  0  0
    2.6431  -22.7943   16.5567 H   0  0  0  0  0  0  0  0  0  0  0  0
  1  2  2  0
  2  3  1  0
  3  4  1  0
  4  5  1  0
  5  6  1  0
  6  7  2  0
  7  8  1  0
  8  9  1  0
  9 10  2  0
 10 11  1  0
 11 12  2  0
 12 13  1  0
 13 14  2  0
  2 15  1  0
 15 16  1  0
 16 17  2  0
 17 18  1  0
 18 19  1  0
 19 20  2  0
 20 21  1  0
 14  6  1  0
 20 16  1  0
 14  9  1  0
  3 22  1  0
  3 23  1  0
  4 24  1  0
  4 25  1  0
  5 26  1  0
  5 27  1  0
  7 28  1  0
  8 29  1  0
 10 30  1  0
 11 31  1  0
 12 32  1  0
 13 33  1  0
 15 34  1  0
 17 35  1  0
 18 36  1  0
M  END
>  <Energy>  (659) 
42.665373384546797

>  <compound_id>  (659) 
33764

>  <target_id>  (659) 
1

>  <reference_id>  (659) 
112

>  <inspiration_ids>  (659) 
[112, 93]

>  <energy_score>  (659) 
5.71341071409239

>  <distance_score>  (659) 
13.615208965034647

>  <path>  (659) 
/opt/xchem-fragalysis-2/maxwin/BulkDock/SCRATCH/511020/C33764-P112/C33764-P112.minimised.mol

>  <scratch_subdir>  (659) 
/opt/xchem-fragalysis-2/maxwin/BulkDock/SCRATCH/511020/C33764-P112

>  <fragmenstein_runtime>  (659) 
16.717065572738647

>  <fragmenstein_outcome>  (659) 
too moved

>  <fragmenstein_mode>  (659) 
expansion

>  <fragmenstein_error>  (659) 


$$$$
C33764-P93
     RDKit          3D

 36 38  0  0  0  0  0  0  0  0999 V2000
    4.9922  -19.5644   15.0460 O   0  0  0  0  0  0  0  0  0  0  0  0
    4.7272  -18.8043   14.1484 C   0  0  0  0  0  0  0  0  0  0  0  0
    5.7784  -17.6143   14.0386 C   0  0  0  0  0  0  0  0  0  0  0  0
    5.3914  -15.8533   13.7988 C   0  0  0  0  0  0  0  0  0  0  0  0
    6.3916  -14.0250   13.7270 C   0  0  0  0  0  0  0  0  0  0  0  0
    7.8976  -14.1383   14.9546 C   0  0  0  0  0  0  0  0  0  0  0  0
    8.5726  -15.4954   15.5724 C   0  0  0  0  0  0  0  0  0  0  0  0
    9.9307  -15.2197   16.0272 N   0  0  0  0  0  0  0  0  0  0  0  0
   10.2184  -13.8706   16.2530 C   0  0  0  0  0  0  0  0  0  0  0  0
   11.3471  -13.3705   16.9222 C   0  0  0  0  0  0  0  0  0  0  0  0
   11.6143  -12.0126   16.8585 C   0  0  0  0  0  0  0  0  0  0  0  0
   10.7669  -11.1619   16.1671 C   0  0  0  0  0  0  0  0  0  0  0  0
    9.6007  -11.6433   15.5512 C   0  0  0  0  0  0  0  0  0  0  0  0
    9.2603  -13.0426   15.5771 C   0  0  0  0  0  0  0  0  0  0  0  0
    3.6946  -18.8638   13.1338 N   0  0  0  0  0  0  0  0  0  0  0  0
    2.6372  -19.7727   12.9463 C   0  0  0  0  0  0  0  0  0  0  0  0
    2.4255  -20.9179   13.6921 C   0  0  0  0  0  0  0  0  0  0  0  0
    1.2531  -21.4845   13.2647 N   0  0  0  0  0  0  0  0  0  0  0  0
    0.7012  -20.8401   12.2274 N   0  0  0  0  0  0  0  0  0  0  0  0
    1.4978  -19.7771   12.0711 C   0  0  0  0  0  0  0  0  0  0  0  0
    1.0415  -18.6125   10.9281 Cl  0  0  0  0  0  0  0  0  0  0  0  0
    6.5348  -18.0333   13.3667 H   0  0  0  0  0  0  0  0  0  0  0  0
    6.2961  -17.6313   15.0129 H   0  0  0  0  0  0  0  0  0  0  0  0
    5.2559  -16.0146   14.9101 H   0  0  0  0  0  0  0  0  0  0  0  0
    4.7258  -15.9638   12.9557 H   0  0  0  0  0  0  0  0  0  0  0  0
    5.8315  -13.1086   13.9589 H   0  0  0  0  0  0  0  0  0  0  0  0
    6.6968  -13.8761   12.6802 H   0  0  0  0  0  0  0  0  0  0  0  0
    8.2792  -16.5344   15.4778 H   0  0  0  0  0  0  0  0  0  0  0  0
   10.5455  -15.9661   16.3169 H   0  0  0  0  0  0  0  0  0  0  0  0
   12.0469  -14.0399   17.4146 H   0  0  0  0  0  0  0  0  0  0  0  0
   12.5439  -11.6735   17.2974 H   0  0  0  0  0  0  0  0  0  0  0  0
   11.0287  -10.1207   16.0473 H   0  0  0  0  0  0  0  0  0  0  0  0
    8.9989  -10.9303   15.0082 H   0  0  0  0  0  0  0  0  0  0  0  0
    3.7143  -18.0121   12.5941 H   0  0  0  0  0  0  0  0  0  0  0  0
    2.9719  -21.3450   14.5211 H   0  0  0  0  0  0  0  0  0  0  0  0
    0.7549  -22.2726   13.6667 H   0  0  0  0  0  0  0  0  0  0  0  0
  1  2  2  0
  2  3  1  0
  3  4  1  0
  4  5  1  0
  5  6  1  0
  6  7  2  0
  7  8  1  0
  8  9  1  0
  9 10  2  0
 10 11  1  0
 11 12  2  0
 12 13  1  0
 13 14  2  0
  2 15  1  0
 15 16  1  0
 16 17  2  0
 17 18  1  0
 18 19  1  0
 19 20  2  0
 20 21  1  0
 14  6  1  0
 20 16  1  0
 14  9  1  0
  3 22  1  0
  3 23  1  0
  4 24  1  0
  4 25  1  0
  5 26  1  0
  5 27  1  0
  7 28  1  0
  8 29  1  0
 10 30  1  0
 11 31  1  0
 12 32  1  0
 13 33  1  0
 15 34  1  0
 17 35  1  0
 18 36  1  0
M  END
>  <Energy>  (660) 
283.78093188460991

>  <compound_id>  (660) 
33764

>  <target_id>  (660) 
1

>  <reference_id>  (660) 
93

>  <inspiration_ids>  (660) 
[112, 93]

>  <energy_score>  (660) 
246.82896921416364

>  <distance_score>  (660) 
12.714010595312587

>  <path>  (660) 
/opt/xchem-fragalysis-2/maxwin/BulkDock/SCRATCH/511020/C33764-P93/C33764-P93.minimised.mol

>  <scratch_subdir>  (660) 
/opt/xchem-fragalysis-2/maxwin/BulkDock/SCRATCH/511020/C33764-P93

>  <fragmenstein_runtime>  (660) 
13.849860191345215

>  <fragmenstein_outcome>  (660) 
too moved

>  <fragmenstein_mode>  (660) 
expansion

>  <fragmenstein_error>  (660) 


$$$$
C33765-P112
     RDKit          3D

 45 47  0  0  0  0  0  0  0  0999 V2000
    2.4636  -14.6439   17.8565 C   0  0  0  0  0  0  0  0  0  0  0  0
    3.4994  -13.4387   18.0621 C   0  0  0  0  0  0  0  0  0  0  0  0
    3.3017  -11.6524   17.2613 C   0  0  0  0  0  0  0  0  0  0  0  0
    3.4306   -9.8850   17.5342 N   0  0  0  0  0  0  0  0  0  0  0  0
    4.7182   -9.0699   18.3602 C   0  0  0  0  0  0  0  0  0  0  0  0
    4.8649   -7.5781   18.4760 C   0  0  0  0  0  0  0  0  0  0  0  0
    6.4808   -7.1566   18.9942 N   0  0  0  0  0  0  0  0  0  0  0  0
    7.1204   -5.9612   19.1174 C   0  0  0  0  0  0  0  0  0  0  0  0
    6.7111   -4.8493   18.9825 O   0  0  0  0  0  0  0  0  0  0  0  0
    9.3199   -5.9349   19.4610 C   0  0  0  0  0  0  0  0  0  0  0  0
   10.8961   -4.9767   18.5437 C   0  0  0  0  0  0  0  0  0  0  0  0
   11.4064   -4.9131   16.9357 C   0  0  0  0  0  0  0  0  0  0  0  0
   12.4510   -4.1295   19.0737 C   0  0  0  0  0  0  0  0  0  0  0  0
   13.2372   -4.4568   20.1781 C   0  0  0  0  0  0  0  0  0  0  0  0
   14.4129   -3.7671   20.1019 N   0  0  0  0  0  0  0  0  0  0  0  0
   14.4434   -2.9711   18.9840 C   0  0  0  0  0  0  0  0  0  0  0  0
   15.4788   -2.1639   18.4938 C   0  0  0  0  0  0  0  0  0  0  0  0
   15.2672   -1.4664   17.3024 C   0  0  0  0  0  0  0  0  0  0  0  0
   14.0509   -1.5447   16.6424 C   0  0  0  0  0  0  0  0  0  0  0  0
   13.0199   -2.3332   17.1643 C   0  0  0  0  0  0  0  0  0  0  0  0
   13.2117   -3.1045   18.3409 C   0  0  0  0  0  0  0  0  0  0  0  0
    3.0802   -7.8821   17.9429 C   0  0  0  0  0  0  0  0  0  0  0  0
    2.4445   -9.0503   17.7804 N   0  0  0  0  0  0  0  0  0  0  0  0
    2.8267  -15.3684   17.1146 H   0  0  0  0  0  0  0  0  0  0  0  0
    2.4194  -15.2243   18.7796 H   0  0  0  0  0  0  0  0  0  0  0  0
    1.4980  -14.2995   17.5160 H   0  0  0  0  0  0  0  0  0  0  0  0
    4.2852  -14.0948   17.6873 H   0  0  0  0  0  0  0  0  0  0  0  0
    4.0115  -13.3293   19.0471 H   0  0  0  0  0  0  0  0  0  0  0  0
    4.2600  -11.8201   17.5915 H   0  0  0  0  0  0  0  0  0  0  0  0
    3.5504  -11.4985   16.2042 H   0  0  0  0  0  0  0  0  0  0  0  0
    5.4713   -9.8091   18.5880 H   0  0  0  0  0  0  0  0  0  0  0  0
    7.1169   -7.8938   19.2651 H   0  0  0  0  0  0  0  0  0  0  0  0
    9.3457   -7.0374   20.0072 H   0  0  0  0  0  0  0  0  0  0  0  0
    9.7314   -5.4010   20.3988 H   0  0  0  0  0  0  0  0  0  0  0  0
   11.4249   -5.4072   19.4402 H   0  0  0  0  0  0  0  0  0  0  0  0
   12.4957   -4.8419   16.8417 H   0  0  0  0  0  0  0  0  0  0  0  0
   11.2661   -5.8046   16.3341 H   0  0  0  0  0  0  0  0  0  0  0  0
   10.9940   -4.0400   16.4294 H   0  0  0  0  0  0  0  0  0  0  0  0
   13.0732   -5.1729   20.9707 H   0  0  0  0  0  0  0  0  0  0  0  0
   15.1827   -3.8716   20.7458 H   0  0  0  0  0  0  0  0  0  0  0  0
   16.4306   -2.0956   19.0106 H   0  0  0  0  0  0  0  0  0  0  0  0
   16.0624   -0.8471   16.8955 H   0  0  0  0  0  0  0  0  0  0  0  0
   13.8899   -0.9843   15.7256 H   0  0  0  0  0  0  0  0  0  0  0  0
   12.0760   -2.3470   16.6342 H   0  0  0  0  0  0  0  0  0  0  0  0
    2.3869   -7.3263   18.5285 H   0  0  0  0  0  0  0  0  0  0  0  0
  1  2  1  0
  2  3  1  0
  3  4  1  0
  4  5  1  0
  5  6  2  0
  6  7  1  0
  7  8  1  0
  8  9  2  0
  8 10  1  0
 10 11  1  0
 11 12  1  0
 11 13  1  0
 13 14  2  0
 14 15  1  0
 15 16  1  0
 16 17  2  0
 17 18  1  0
 18 19  2  0
 19 20  1  0
 20 21  2  0
  6 22  1  0
 22 23  2  0
 23  4  1  0
 21 13  1  0
 21 16  1  0
  1 24  1  0
  1 25  1  0
  1 26  1  0
  2 27  1  0
  2 28  1  0
  3 29  1  0
  3 30  1  0
  5 31  1  0
  7 32  1  0
 10 33  1  0
 10 34  1  0
 11 35  1  0
 12 36  1  0
 12 37  1  0
 12 38  1  0
 14 39  1  0
 15 40  1  0
 17 41  1  0
 18 42  1  0
 19 43  1  0
 20 44  1  0
 22 45  1  0
M  END
>  <Energy>  (661) 
789.11067448537869

>  <compound_id>  (661) 
33765

>  <target_id>  (661) 
1

>  <reference_id>  (661) 
112

>  <inspiration_ids>  (661) 
[112, 93]

>  <energy_score>  (661) 
722.1707648715843

>  <distance_score>  (661) 
16.57786684568165

>  <path>  (661) 
/opt/xchem-fragalysis-2/maxwin/BulkDock/SCRATCH/511020/C33765-P112/C33765-P112.minimised.mol

>  <scratch_subdir>  (661) 
/opt/xchem-fragalysis-2/maxwin/BulkDock/SCRATCH/511020/C33765-P112

>  <fragmenstein_runtime>  (661) 
23.06592893600464

>  <fragmenstein_outcome>  (661) 
too moved

>  <fragmenstein_mode>  (661) 
expansion

>  <fragmenstein_error>  (661) 


$$$$
C33765-P93
     RDKit          3D

 45 47  0  0  0  0  0  0  0  0999 V2000
   -4.3265  -20.1534   17.3402 C   0  0  0  0  0  0  0  0  0  0  0  0
   -3.2378  -19.3574   18.0910 C   0  0  0  0  0  0  0  0  0  0  0  0
   -1.8413  -19.4704   17.4123 C   0  0  0  0  0  0  0  0  0  0  0  0
   -0.6805  -18.5320   17.8283 N   0  0  0  0  0  0  0  0  0  0  0  0
    1.1257  -18.4746   17.4347 C   0  0  0  0  0  0  0  0  0  0  0  0
    1.8585  -17.2558   18.0060 C   0  0  0  0  0  0  0  0  0  0  0  0
    2.6460  -15.6548   17.1834 N   0  0  0  0  0  0  0  0  0  0  0  0
    3.3474  -14.0771   17.9267 C   0  0  0  0  0  0  0  0  0  0  0  0
    3.4526  -13.9664   19.0741 O   0  0  0  0  0  0  0  0  0  0  0  0
    3.8768  -12.1905   16.9540 C   0  0  0  0  0  0  0  0  0  0  0  0
    4.4277  -11.3809   15.0843 C   0  0  0  0  0  0  0  0  0  0  0  0
    5.1996  -12.2375   14.0505 C   0  0  0  0  0  0  0  0  0  0  0  0
    5.5094  -10.0969   14.0671 C   0  0  0  0  0  0  0  0  0  0  0  0
    7.0178  -10.3613   13.6305 C   0  0  0  0  0  0  0  0  0  0  0  0
    7.8471   -9.3328   14.2619 N   0  0  0  0  0  0  0  0  0  0  0  0
    6.6660   -7.9824   14.6999 C   0  0  0  0  0  0  0  0  0  0  0  0
    6.4485   -6.9586   15.7285 C   0  0  0  0  0  0  0  0  0  0  0  0
    7.5565   -6.4389   15.5471 C   0  0  0  0  0  0  0  0  0  0  0  0
    8.3645   -7.0388   14.3765 C   0  0  0  0  0  0  0  0  0  0  0  0
    7.3591   -7.7563   13.0479 C   0  0  0  0  0  0  0  0  0  0  0  0
    5.9382   -8.2384   13.6894 C   0  0  0  0  0  0  0  0  0  0  0  0
    0.5963  -17.1992   19.4982 C   0  0  0  0  0  0  0  0  0  0  0  0
   -0.7149  -17.8743   19.3348 N   0  0  0  0  0  0  0  0  0  0  0  0
   -5.2852  -20.0613   17.8593 H   0  0  0  0  0  0  0  0  0  0  0  0
   -4.4475  -19.7756   16.3203 H   0  0  0  0  0  0  0  0  0  0  0  0
   -4.0601  -21.2136   17.2907 H   0  0  0  0  0  0  0  0  0  0  0  0
   -3.1648  -19.7232   19.1215 H   0  0  0  0  0  0  0  0  0  0  0  0
   -3.5492  -18.3099   18.1527 H   0  0  0  0  0  0  0  0  0  0  0  0
   -2.0208  -19.2503   16.3611 H   0  0  0  0  0  0  0  0  0  0  0  0
   -1.4859  -20.4968   17.5301 H   0  0  0  0  0  0  0  0  0  0  0  0
    1.3225  -19.1435   16.6011 H   0  0  0  0  0  0  0  0  0  0  0  0
    2.5539  -15.5397   16.2000 H   0  0  0  0  0  0  0  0  0  0  0  0
    4.3582  -11.9777   17.8745 H   0  0  0  0  0  0  0  0  0  0  0  0
    3.0920  -11.4592   17.0936 H   0  0  0  0  0  0  0  0  0  0  0  0
    3.5838  -10.8973   14.6586 H   0  0  0  0  0  0  0  0  0  0  0  0
    6.1246  -12.8116   13.9724 H   0  0  0  0  0  0  0  0  0  0  0  0
    5.1694  -11.8257   13.0779 H   0  0  0  0  0  0  0  0  0  0  0  0
    4.6340  -13.0301   14.1764 H   0  0  0  0  0  0  0  0  0  0  0  0
    7.4461  -11.2650   13.3421 H   0  0  0  0  0  0  0  0  0  0  0  0
    8.5972   -9.5819   14.8958 H   0  0  0  0  0  0  0  0  0  0  0  0
    5.6345   -6.4500   16.2278 H   0  0  0  0  0  0  0  0  0  0  0  0
    7.5381   -5.4555   15.9644 H   0  0  0  0  0  0  0  0  0  0  0  0
    8.5598   -5.8949   14.2044 H   0  0  0  0  0  0  0  0  0  0  0  0
    7.4625   -7.4717   12.0070 H   0  0  0  0  0  0  0  0  0  0  0  0
    0.6263  -16.4473   20.2767 H   0  0  0  0  0  0  0  0  0  0  0  0
  1  2  1  0
  2  3  1  0
  3  4  1  0
  4  5  1  0
  5  6  2  0
  6  7  1  0
  7  8  1  0
  8  9  2  0
  8 10  1  0
 10 11  1  0
 11 12  1  0
 11 13  1  0
 13 14  2  0
 14 15  1  0
 15 16  1  0
 16 17  2  0
 17 18  1  0
 18 19  2  0
 19 20  1  0
 20 21  2  0
  6 22  1  0
 22 23  2  0
 23  4  1  0
 21 13  1  0
 21 16  1  0
  1 24  1  0
  1 25  1  0
  1 26  1  0
  2 27  1  0
  2 28  1  0
  3 29  1  0
  3 30  1  0
  5 31  1  0
  7 32  1  0
 10 33  1  0
 10 34  1  0
 11 35  1  0
 12 36  1  0
 12 37  1  0
 12 38  1  0
 14 39  1  0
 15 40  1  0
 17 41  1  0
 18 42  1  0
 19 43  1  0
 20 44  1  0
 22 45  1  0
M  END
>  <Energy>  (662) 
1362.4801688772613

>  <compound_id>  (662) 
33765

>  <target_id>  (662) 
1

>  <reference_id>  (662) 
93

>  <inspiration_ids>  (662) 
[112, 93]

>  <energy_score>  (662) 
1295.5402592634684

>  <distance_score>  (662) 
12.253004750912883

>  <path>  (662) 
/opt/xchem-fragalysis-2/maxwin/BulkDock/SCRATCH/511020/C33765-P93/C33765-P93.minimised.mol

>  <scratch_subdir>  (662) 
/opt/xchem-fragalysis-2/maxwin/BulkDock/SCRATCH/511020/C33765-P93

>  <fragmenstein_runtime>  (662) 
34.02003049850464

>  <fragmenstein_outcome>  (662) 
too moved

>  <fragmenstein_mode>  (662) 
expansion

>  <fragmenstein_error>  (662) 


$$$$
C33766-P112
     RDKit          3D

 39 41  0  0  0  0  0  0  0  0999 V2000
   -5.1666  -16.8149   15.6888 C   0  0  0  0  0  0  0  0  0  0  0  0
   -4.2070  -16.1062   16.5527 N   0  0  0  0  0  0  0  0  0  0  0  0
   -3.2284  -14.7006   16.7601 C   0  0  0  0  0  0  0  0  0  0  0  0
   -1.9478  -14.9018   17.6150 C   0  0  0  0  0  0  0  0  0  0  0  0
   -0.0959  -14.9654   17.9335 N   0  0  0  0  0  0  0  0  0  0  0  0
    1.3767  -13.9464   17.2479 C   0  0  0  0  0  0  0  0  0  0  0  0
    0.9956  -13.3004   16.4434 O   0  0  0  0  0  0  0  0  0  0  0  0
    3.4338  -13.3295   17.6082 C   0  0  0  0  0  0  0  0  0  0  0  0
    4.2571  -11.7567   16.1365 C   0  0  0  0  0  0  0  0  0  0  0  0
    5.7461  -10.7608   14.6992 C   0  0  0  0  0  0  0  0  0  0  0  0
    7.9065  -10.1194   14.9762 C   0  0  0  0  0  0  0  0  0  0  0  0
    9.1384  -11.1548   15.4292 C   0  0  0  0  0  0  0  0  0  0  0  0
   10.4717  -10.8762   15.4962 N   0  0  0  0  0  0  0  0  0  0  0  0
   10.6716   -9.5874   15.7299 C   0  0  0  0  0  0  0  0  0  0  0  0
   11.9717   -8.7572   15.9362 C   0  0  0  0  0  0  0  0  0  0  0  0
   12.2811   -7.0107   16.1030 C   0  0  0  0  0  0  0  0  0  0  0  0
   11.1393   -6.1645   15.8905 C   0  0  0  0  0  0  0  0  0  0  0  0
    9.7637   -7.2770   15.3402 C   0  0  0  0  0  0  0  0  0  0  0  0
    9.4157   -9.0198   15.4595 C   0  0  0  0  0  0  0  0  0  0  0  0
   -2.9500  -16.5509   17.7924 C   0  0  0  0  0  0  0  0  0  0  0  0
   -4.2217  -16.7617   17.6585 N   0  0  0  0  0  0  0  0  0  0  0  0
   -6.1830  -16.5509   16.0001 H   0  0  0  0  0  0  0  0  0  0  0  0
   -5.0507  -17.8930   15.8560 H   0  0  0  0  0  0  0  0  0  0  0  0
   -4.9780  -16.6624   14.6520 H   0  0  0  0  0  0  0  0  0  0  0  0
   -3.2645  -14.1755   15.8916 H   0  0  0  0  0  0  0  0  0  0  0  0
    0.2728  -15.6374   18.6097 H   0  0  0  0  0  0  0  0  0  0  0  0
    3.9693  -14.3164   17.6074 H   0  0  0  0  0  0  0  0  0  0  0  0
    3.7830  -12.8649   18.5168 H   0  0  0  0  0  0  0  0  0  0  0  0
    3.6674  -10.9174   16.5989 H   0  0  0  0  0  0  0  0  0  0  0  0
    3.6013  -11.7097   15.3231 H   0  0  0  0  0  0  0  0  0  0  0  0
    5.8017  -11.5087   13.8585 H   0  0  0  0  0  0  0  0  0  0  0  0
    5.2006   -9.9730   14.1530 H   0  0  0  0  0  0  0  0  0  0  0  0
    9.0106  -12.2123   15.6393 H   0  0  0  0  0  0  0  0  0  0  0  0
   11.1782  -11.5871   15.6052 H   0  0  0  0  0  0  0  0  0  0  0  0
   12.7642   -9.3777   15.5603 H   0  0  0  0  0  0  0  0  0  0  0  0
   13.1961   -6.5688   15.7091 H   0  0  0  0  0  0  0  0  0  0  0  0
   11.2310   -5.1248   15.5809 H   0  0  0  0  0  0  0  0  0  0  0  0
    8.8894   -6.7891   14.8730 H   0  0  0  0  0  0  0  0  0  0  0  0
   -2.4935  -17.4750   17.4832 H   0  0  0  0  0  0  0  0  0  0  0  0
  1  2  1  0
  2  3  1  0
  3  4  2  0
  4  5  1  0
  5  6  1  0
  6  7  2  0
  6  8  1  0
  8  9  1  0
  9 10  1  0
 10 11  1  0
 11 12  2  0
 12 13  1  0
 13 14  1  0
 14 15  2  0
 15 16  1  0
 16 17  2  0
 17 18  1  0
 18 19  2  0
  4 20  1  0
 20 21  2  0
 21  2  1  0
 19 11  1  0
 19 14  1  0
  1 22  1  0
  1 23  1  0
  1 24  1  0
  3 25  1  0
  5 26  1  0
  8 27  1  0
  8 28  1  0
  9 29  1  0
  9 30  1  0
 10 31  1  0
 10 32  1  0
 12 33  1  0
 13 34  1  0
 15 35  1  0
 16 36  1  0
 17 37  1  0
 18 38  1  0
 20 39  1  0
M  END
>  <Energy>  (663) 
1548.8582868353078

>  <compound_id>  (663) 
33766

>  <target_id>  (663) 
1

>  <reference_id>  (663) 
112

>  <inspiration_ids>  (663) 
[112, 93]

>  <energy_score>  (663) 
1491.9841651542226

>  <distance_score>  (663) 
10.401266328275101

>  <path>  (663) 
/opt/xchem-fragalysis-2/maxwin/BulkDock/SCRATCH/511020/C33766-P112/C33766-P112.minimised.mol

>  <scratch_subdir>  (663) 
/opt/xchem-fragalysis-2/maxwin/BulkDock/SCRATCH/511020/C33766-P112

>  <fragmenstein_runtime>  (663) 
13.618123292922974

>  <fragmenstein_outcome>  (663) 
too moved

>  <fragmenstein_mode>  (663) 
expansion

>  <fragmenstein_error>  (663) 


$$$$
C33766-P93
     RDKit          3D

 39 41  0  0  0  0  0  0  0  0999 V2000
   -4.4279  -16.7568   16.5925 C   0  0  0  0  0  0  0  0  0  0  0  0
   -3.4340  -15.9469   17.3157 N   0  0  0  0  0  0  0  0  0  0  0  0
   -2.3818  -14.7687   16.8874 C   0  0  0  0  0  0  0  0  0  0  0  0
   -1.4159  -14.4237   18.0107 C   0  0  0  0  0  0  0  0  0  0  0  0
    0.2209  -13.5248   17.8678 N   0  0  0  0  0  0  0  0  0  0  0  0
    2.0272  -14.0893   18.1698 C   0  0  0  0  0  0  0  0  0  0  0  0
    2.2894  -15.2285   18.4173 O   0  0  0  0  0  0  0  0  0  0  0  0
    3.7641  -12.9233   18.3364 C   0  0  0  0  0  0  0  0  0  0  0  0
    5.5448  -12.0729   19.0778 C   0  0  0  0  0  0  0  0  0  0  0  0
    7.0793  -10.6780   18.8260 C   0  0  0  0  0  0  0  0  0  0  0  0
    8.5918  -10.5237   17.4050 C   0  0  0  0  0  0  0  0  0  0  0  0
    9.3640  -11.5837   16.8227 C   0  0  0  0  0  0  0  0  0  0  0  0
   10.6229  -11.3806   16.2652 N   0  0  0  0  0  0  0  0  0  0  0  0
   10.8604  -10.0890   16.0427 C   0  0  0  0  0  0  0  0  0  0  0  0
   12.0807   -9.3017   15.8437 C   0  0  0  0  0  0  0  0  0  0  0  0
   12.3503   -7.5318   15.9459 C   0  0  0  0  0  0  0  0  0  0  0  0
   11.2317   -6.6709   15.7778 C   0  0  0  0  0  0  0  0  0  0  0  0
    9.7977   -7.7567   15.4657 C   0  0  0  0  0  0  0  0  0  0  0  0
    9.5940   -9.5054   16.0981 C   0  0  0  0  0  0  0  0  0  0  0  0
   -1.8032  -15.8142   19.0178 C   0  0  0  0  0  0  0  0  0  0  0  0
   -2.8237  -16.6350   18.5462 N   0  0  0  0  0  0  0  0  0  0  0  0
   -4.3811  -17.7755   16.9899 H   0  0  0  0  0  0  0  0  0  0  0  0
   -5.4199  -16.3604   16.8075 H   0  0  0  0  0  0  0  0  0  0  0  0
   -4.1801  -16.7876   15.5366 H   0  0  0  0  0  0  0  0  0  0  0  0
   -2.3958  -14.6311   15.8380 H   0  0  0  0  0  0  0  0  0  0  0  0
    0.2140  -12.6011   17.6057 H   0  0  0  0  0  0  0  0  0  0  0  0
    4.1855  -13.9499   18.1024 H   0  0  0  0  0  0  0  0  0  0  0  0
    3.9009  -13.2242   19.4046 H   0  0  0  0  0  0  0  0  0  0  0  0
    5.3140  -11.7909   20.1248 H   0  0  0  0  0  0  0  0  0  0  0  0
    5.9604  -13.0098   19.4461 H   0  0  0  0  0  0  0  0  0  0  0  0
    6.9626   -9.9573   19.6768 H   0  0  0  0  0  0  0  0  0  0  0  0
    7.8367  -11.0839   19.5861 H   0  0  0  0  0  0  0  0  0  0  0  0
    9.1780  -12.6124   16.6598 H   0  0  0  0  0  0  0  0  0  0  0  0
   11.2726  -12.1276   16.0620 H   0  0  0  0  0  0  0  0  0  0  0  0
   12.8923   -9.9463   15.4990 H   0  0  0  0  0  0  0  0  0  0  0  0
   13.2978   -7.0659   15.7317 H   0  0  0  0  0  0  0  0  0  0  0  0
   11.2880   -5.5897   15.8142 H   0  0  0  0  0  0  0  0  0  0  0  0
    8.9950   -7.1669   15.0149 H   0  0  0  0  0  0  0  0  0  0  0  0
   -1.2838  -16.1217   19.9149 H   0  0  0  0  0  0  0  0  0  0  0  0
  1  2  1  0
  2  3  1  0
  3  4  2  0
  4  5  1  0
  5  6  1  0
  6  7  2  0
  6  8  1  0
  8  9  1  0
  9 10  1  0
 10 11  1  0
 11 12  2  0
 12 13  1  0
 13 14  1  0
 14 15  2  0
 15 16  1  0
 16 17  2  0
 17 18  1  0
 18 19  2  0
  4 20  1  0
 20 21  2  0
 21  2  1  0
 19 11  1  0
 19 14  1  0
  1 22  1  0
  1 23  1  0
  1 24  1  0
  3 25  1  0
  5 26  1  0
  8 27  1  0
  8 28  1  0
  9 29  1  0
  9 30  1  0
 10 31  1  0
 10 32  1  0
 12 33  1  0
 13 34  1  0
 15 35  1  0
 16 36  1  0
 17 37  1  0
 18 38  1  0
 20 39  1  0
M  END
>  <Energy>  (664) 
1050.491433649574

>  <compound_id>  (664) 
33766

>  <target_id>  (664) 
1

>  <reference_id>  (664) 
93

>  <inspiration_ids>  (664) 
[112, 93]

>  <energy_score>  (664) 
993.6173119684825

>  <distance_score>  (664) 
10.942458625271579

>  <path>  (664) 
/opt/xchem-fragalysis-2/maxwin/BulkDock/SCRATCH/511020/C33766-P93/C33766-P93.minimised.mol

>  <scratch_subdir>  (664) 
/opt/xchem-fragalysis-2/maxwin/BulkDock/SCRATCH/511020/C33766-P93

>  <fragmenstein_runtime>  (664) 
16.85763669013977

>  <fragmenstein_outcome>  (664) 
too moved

>  <fragmenstein_mode>  (664) 
expansion

>  <fragmenstein_error>  (664) 


$$$$
C33767-P112
     RDKit          3D

 42 44  0  0  0  0  0  0  0  0999 V2000
   -6.0055  -15.7917   12.2508 C   0  0  0  0  0  0  0  0  0  0  0  0
   -4.8176  -14.8843   12.6482 C   0  0  0  0  0  0  0  0  0  0  0  0
   -4.2478  -15.0958   14.0542 C   0  0  0  0  0  0  0  0  0  0  0  0
   -5.0233  -15.8924   14.8744 N   0  0  0  0  0  0  0  0  0  0  0  0
   -4.8272  -15.6516   16.1498 N   0  0  0  0  0  0  0  0  0  0  0  0
   -3.7208  -14.9300   16.0999 C   0  0  0  0  0  0  0  0  0  0  0  0
   -2.9541  -14.7731   14.8428 C   0  0  0  0  0  0  0  0  0  0  0  0
   -1.1323  -14.0469   15.0290 N   0  0  0  0  0  0  0  0  0  0  0  0
    0.2908  -13.4211   13.6619 C   0  0  0  0  0  0  0  0  0  0  0  0
    0.1323  -13.4628   12.4461 O   0  0  0  0  0  0  0  0  0  0  0  0
    2.1203  -12.4920   14.6521 C   0  0  0  0  0  0  0  0  0  0  0  0
    4.2903  -11.5021   14.7750 C   0  0  0  0  0  0  0  0  0  0  0  0
    5.3535  -11.9827   13.6190 C   0  0  0  0  0  0  0  0  0  0  0  0
    6.2704  -10.5017   14.3515 C   0  0  0  0  0  0  0  0  0  0  0  0
    8.1615  -10.4864   14.2715 C   0  0  0  0  0  0  0  0  0  0  0  0
    9.1154  -11.6340   15.2445 N   0  0  0  0  0  0  0  0  0  0  0  0
    8.7467  -11.0661   16.4908 C   0  0  0  0  0  0  0  0  0  0  0  0
    9.7404  -10.9508   17.4977 C   0  0  0  0  0  0  0  0  0  0  0  0
   10.9966  -10.9211   16.9874 C   0  0  0  0  0  0  0  0  0  0  0  0
   11.0625  -10.0187   15.9741 C   0  0  0  0  0  0  0  0  0  0  0  0
    9.7936   -9.5049   15.4197 C   0  0  0  0  0  0  0  0  0  0  0  0
    8.0719  -10.0744   15.4754 C   0  0  0  0  0  0  0  0  0  0  0  0
   -5.7695  -16.8547   12.3497 H   0  0  0  0  0  0  0  0  0  0  0  0
   -6.8870  -15.5743   12.8636 H   0  0  0  0  0  0  0  0  0  0  0  0
   -6.2782  -15.6008   11.2075 H   0  0  0  0  0  0  0  0  0  0  0  0
   -5.1666  -13.8459   12.5942 H   0  0  0  0  0  0  0  0  0  0  0  0
   -4.0546  -15.0016   11.8783 H   0  0  0  0  0  0  0  0  0  0  0  0
   -5.8329  -16.4479   14.6260 H   0  0  0  0  0  0  0  0  0  0  0  0
   -3.3213  -14.4386   16.9515 H   0  0  0  0  0  0  0  0  0  0  0  0
   -0.7964  -13.8926   15.9720 H   0  0  0  0  0  0  0  0  0  0  0  0
    1.8374  -13.1031   15.5768 H   0  0  0  0  0  0  0  0  0  0  0  0
    1.7323  -12.1822   15.5882 H   0  0  0  0  0  0  0  0  0  0  0  0
    3.8994  -10.5137   14.4832 H   0  0  0  0  0  0  0  0  0  0  0  0
    5.8005  -12.9041   13.8932 H   0  0  0  0  0  0  0  0  0  0  0  0
    5.2775  -11.2184   12.8594 H   0  0  0  0  0  0  0  0  0  0  0  0
    6.4123  -12.0504   13.3076 H   0  0  0  0  0  0  0  0  0  0  0  0
    9.0247  -10.5722   13.6463 H   0  0  0  0  0  0  0  0  0  0  0  0
   10.0317  -11.8735   14.8965 H   0  0  0  0  0  0  0  0  0  0  0  0
    9.5479  -11.1472   18.5438 H   0  0  0  0  0  0  0  0  0  0  0  0
   11.8395  -11.3114   17.5298 H   0  0  0  0  0  0  0  0  0  0  0  0
   12.0155   -9.5708   15.7420 H   0  0  0  0  0  0  0  0  0  0  0  0
    9.8922   -8.4923   15.0844 H   0  0  0  0  0  0  0  0  0  0  0  0
  1  2  1  0
  2  3  1  0
  3  4  1  0
  4  5  1  0
  5  6  2  0
  6  7  1  0
  7  8  1  0
  8  9  1  0
  9 10  2  0
  9 11  1  0
 11 12  1  0
 12 13  1  0
 12 14  1  0
 14 15  2  0
 15 16  1  0
 16 17  1  0
 17 18  2  0
 18 19  1  0
 19 20  2  0
 20 21  1  0
 21 22  2  0
  7  3  2  0
 22 14  1  0
 22 17  1  0
  1 23  1  0
  1 24  1  0
  1 25  1  0
  2 26  1  0
  2 27  1  0
  4 28  1  0
  6 29  1  0
  8 30  1  0
 11 31  1  0
 11 32  1  0
 12 33  1  0
 13 34  1  0
 13 35  1  0
 13 36  1  0
 15 37  1  0
 16 38  1  0
 18 39  1  0
 19 40  1  0
 20 41  1  0
 21 42  1  0
M  END
>  <Energy>  (665) 
2047.3316930320959

>  <compound_id>  (665) 
33767

>  <target_id>  (665) 
1

>  <reference_id>  (665) 
112

>  <inspiration_ids>  (665) 
[112, 93]

>  <energy_score>  (665) 
2005.4176437560131

>  <distance_score>  (665) 
10.881903713770999

>  <path>  (665) 
/opt/xchem-fragalysis-2/maxwin/BulkDock/SCRATCH/511020/C33767-P112/C33767-P112.minimised.mol

>  <scratch_subdir>  (665) 
/opt/xchem-fragalysis-2/maxwin/BulkDock/SCRATCH/511020/C33767-P112

>  <fragmenstein_runtime>  (665) 
18.596174716949463

>  <fragmenstein_outcome>  (665) 
too moved

>  <fragmenstein_mode>  (665) 
expansion

>  <fragmenstein_error>  (665) 


$$$$
C33767-P93
     RDKit          3D

 42 44  0  0  0  0  0  0  0  0999 V2000
    0.6155  -17.3422   19.4314 C   0  0  0  0  0  0  0  0  0  0  0  0
    1.5091  -18.1249   17.7364 C   0  0  0  0  0  0  0  0  0  0  0  0
    2.7714  -18.4581   16.3080 C   0  0  0  0  0  0  0  0  0  0  0  0
    2.4899  -19.6735   15.6621 N   0  0  0  0  0  0  0  0  0  0  0  0
    3.3894  -20.1465   14.7895 N   0  0  0  0  0  0  0  0  0  0  0  0
    4.3632  -19.2444   14.6800 C   0  0  0  0  0  0  0  0  0  0  0  0
    4.2424  -18.0805   15.4954 C   0  0  0  0  0  0  0  0  0  0  0  0
    5.4724  -16.8610   15.6076 N   0  0  0  0  0  0  0  0  0  0  0  0
    7.2417  -16.9826   15.5785 C   0  0  0  0  0  0  0  0  0  0  0  0
    7.8823  -18.0053   15.3829 O   0  0  0  0  0  0  0  0  0  0  0  0
    8.5093  -15.3815   15.7031 C   0  0  0  0  0  0  0  0  0  0  0  0
    9.6248  -13.6612   16.0870 C   0  0  0  0  0  0  0  0  0  0  0  0
   10.8934  -14.2479   16.7902 C   0  0  0  0  0  0  0  0  0  0  0  0
    9.5046  -11.6700   16.2701 C   0  0  0  0  0  0  0  0  0  0  0  0
   10.4219  -11.4538   17.3336 C   0  0  0  0  0  0  0  0  0  0  0  0
   11.5523  -11.3235   16.5202 N   0  0  0  0  0  0  0  0  0  0  0  0
   11.3499  -10.1433   15.8772 C   0  0  0  0  0  0  0  0  0  0  0  0
   12.3078   -9.1008   15.7677 C   0  0  0  0  0  0  0  0  0  0  0  0
   12.3310   -7.3651   15.9423 C   0  0  0  0  0  0  0  0  0  0  0  0
   11.0881   -6.7415   15.6910 C   0  0  0  0  0  0  0  0  0  0  0  0
    9.8000   -8.1066   15.3755 C   0  0  0  0  0  0  0  0  0  0  0  0
   10.0145   -9.9725   15.5599 C   0  0  0  0  0  0  0  0  0  0  0  0
    0.7530  -16.2800   19.6308 H   0  0  0  0  0  0  0  0  0  0  0  0
    0.5542  -17.7543   20.4838 H   0  0  0  0  0  0  0  0  0  0  0  0
   -0.5304  -17.5547   19.4816 H   0  0  0  0  0  0  0  0  0  0  0  0
    1.9478  -19.0351   18.1509 H   0  0  0  0  0  0  0  0  0  0  0  0
    2.1624  -17.2732   17.7376 H   0  0  0  0  0  0  0  0  0  0  0  0
    1.6712  -20.2502   15.8120 H   0  0  0  0  0  0  0  0  0  0  0  0
    5.1793  -19.4632   14.0043 H   0  0  0  0  0  0  0  0  0  0  0  0
    5.2087  -15.9326   15.8711 H   0  0  0  0  0  0  0  0  0  0  0  0
    7.8953  -14.7075   15.1233 H   0  0  0  0  0  0  0  0  0  0  0  0
    9.3490  -15.9966   15.3257 H   0  0  0  0  0  0  0  0  0  0  0  0
    9.9457  -13.3576   15.1381 H   0  0  0  0  0  0  0  0  0  0  0  0
   11.8194  -13.7474   16.5059 H   0  0  0  0  0  0  0  0  0  0  0  0
   10.8054  -14.2125   17.8790 H   0  0  0  0  0  0  0  0  0  0  0  0
   11.0429  -15.2935   16.5042 H   0  0  0  0  0  0  0  0  0  0  0  0
   10.6068  -11.9559   18.2715 H   0  0  0  0  0  0  0  0  0  0  0  0
   12.4733  -11.6163   16.8153 H   0  0  0  0  0  0  0  0  0  0  0  0
   13.0822   -9.5140   15.1067 H   0  0  0  0  0  0  0  0  0  0  0  0
   13.2123   -6.7547   15.8578 H   0  0  0  0  0  0  0  0  0  0  0  0
   11.1111   -5.6581   15.7010 H   0  0  0  0  0  0  0  0  0  0  0  0
    8.8990   -7.5674   15.0164 H   0  0  0  0  0  0  0  0  0  0  0  0
  1  2  1  0
  2  3  1  0
  3  4  1  0
  4  5  1  0
  5  6  2  0
  6  7  1  0
  7  8  1  0
  8  9  1  0
  9 10  2  0
  9 11  1  0
 11 12  1  0
 12 13  1  0
 12 14  1  0
 14 15  2  0
 15 16  1  0
 16 17  1  0
 17 18  2  0
 18 19  1  0
 19 20  2  0
 20 21  1  0
 21 22  2  0
  7  3  2  0
 22 14  1  0
 22 17  1  0
  1 23  1  0
  1 24  1  0
  1 25  1  0
  2 26  1  0
  2 27  1  0
  4 28  1  0
  6 29  1  0
  8 30  1  0
 11 31  1  0
 11 32  1  0
 12 33  1  0
 13 34  1  0
 13 35  1  0
 13 36  1  0
 15 37  1  0
 16 38  1  0
 18 39  1  0
 19 40  1  0
 20 41  1  0
 21 42  1  0
M  END
>  <Energy>  (666) 
1057.7222502052562

>  <compound_id>  (666) 
33767

>  <target_id>  (666) 
1

>  <reference_id>  (666) 
93

>  <inspiration_ids>  (666) 
[112, 93]

>  <energy_score>  (666) 
1015.8082009291553

>  <distance_score>  (666) 
12.443398322810568

>  <path>  (666) 
/opt/xchem-fragalysis-2/maxwin/BulkDock/SCRATCH/511020/C33767-P93/C33767-P93.minimised.mol

>  <scratch_subdir>  (666) 
/opt/xchem-fragalysis-2/maxwin/BulkDock/SCRATCH/511020/C33767-P93

>  <fragmenstein_runtime>  (666) 
21.880571126937866

>  <fragmenstein_outcome>  (666) 
too moved

>  <fragmenstein_mode>  (666) 
expansion

>  <fragmenstein_error>  (666) 


$$$$
C33768-P112
     RDKit          3D

 46 48  0  0  0  0  0  0  0  0999 V2000
   -3.3301  -20.2480   15.5542 C   0  0  0  0  0  0  0  0  0  0  0  0
   -3.7326  -19.0960   16.2935 N   0  0  0  0  0  0  0  0  0  0  0  0
   -4.6375  -18.0399   15.9639 C   0  0  0  0  0  0  0  0  0  0  0  0
   -5.3512  -17.8898   15.0154 O   0  0  0  0  0  0  0  0  0  0  0  0
   -4.7019  -17.0204   17.0660 C   0  0  0  0  0  0  0  0  0  0  0  0
   -3.4366  -16.3477   17.3467 N   0  0  0  0  0  0  0  0  0  0  0  0
   -2.9600  -14.7337   17.0449 C   0  0  0  0  0  0  0  0  0  0  0  0
   -1.5615  -14.5335   17.7586 C   0  0  0  0  0  0  0  0  0  0  0  0
   -0.6093  -13.8581   16.7201 N   0  0  0  0  0  0  0  0  0  0  0  0
    1.1934  -13.8107   16.5868 C   0  0  0  0  0  0  0  0  0  0  0  0
    1.9526  -14.4349   17.3193 O   0  0  0  0  0  0  0  0  0  0  0  0
    2.1966  -12.4766   15.2345 C   0  0  0  0  0  0  0  0  0  0  0  0
    4.1051  -11.3580   15.0570 C   0  0  0  0  0  0  0  0  0  0  0  0
    5.9757  -10.5829   14.2818 C   0  0  0  0  0  0  0  0  0  0  0  0
    8.0542  -10.1253   14.8440 C   0  0  0  0  0  0  0  0  0  0  0  0
    9.2078  -11.1640   15.2794 C   0  0  0  0  0  0  0  0  0  0  0  0
   10.5231  -10.8763   15.5244 N   0  0  0  0  0  0  0  0  0  0  0  0
   10.7171   -9.5809   15.7382 C   0  0  0  0  0  0  0  0  0  0  0  0
   11.9930   -8.7392   15.9376 C   0  0  0  0  0  0  0  0  0  0  0  0
   12.2861   -6.9914   16.1003 C   0  0  0  0  0  0  0  0  0  0  0  0
   11.1440   -6.1540   15.8886 C   0  0  0  0  0  0  0  0  0  0  0  0
    9.7752   -7.2648   15.3343 C   0  0  0  0  0  0  0  0  0  0  0  0
    9.4829   -9.0042   15.4254 C   0  0  0  0  0  0  0  0  0  0  0  0
   -1.7842  -15.6658   18.9851 C   0  0  0  0  0  0  0  0  0  0  0  0
   -2.7234  -16.7931   18.6108 N   0  0  0  0  0  0  0  0  0  0  0  0
   -2.4326  -19.9929   15.0030 H   0  0  0  0  0  0  0  0  0  0  0  0
   -4.1036  -20.4746   14.8211 H   0  0  0  0  0  0  0  0  0  0  0  0
   -3.1483  -21.0789   16.2365 H   0  0  0  0  0  0  0  0  0  0  0  0
   -3.2277  -18.8475   17.1446 H   0  0  0  0  0  0  0  0  0  0  0  0
   -5.0006  -17.5401   17.9858 H   0  0  0  0  0  0  0  0  0  0  0  0
   -5.4952  -16.3089   16.8647 H   0  0  0  0  0  0  0  0  0  0  0  0
   -3.3315  -14.4005   16.1286 H   0  0  0  0  0  0  0  0  0  0  0  0
   -0.9964  -13.3601   15.9873 H   0  0  0  0  0  0  0  0  0  0  0  0
    1.5531  -12.2024   14.3676 H   0  0  0  0  0  0  0  0  0  0  0  0
    2.3835  -11.9230   16.1906 H   0  0  0  0  0  0  0  0  0  0  0  0
    4.6640  -12.1664   14.7011 H   0  0  0  0  0  0  0  0  0  0  0  0
    3.9765  -10.9721   16.0453 H   0  0  0  0  0  0  0  0  0  0  0  0
    6.0564  -11.2942   13.4504 H   0  0  0  0  0  0  0  0  0  0  0  0
    5.4751   -9.6880   13.9678 H   0  0  0  0  0  0  0  0  0  0  0  0
    9.0799  -12.2275   15.4465 H   0  0  0  0  0  0  0  0  0  0  0  0
   11.2230  -11.5871   15.6695 H   0  0  0  0  0  0  0  0  0  0  0  0
   12.7871   -9.3449   15.5438 H   0  0  0  0  0  0  0  0  0  0  0  0
   13.2000   -6.5430   15.7109 H   0  0  0  0  0  0  0  0  0  0  0  0
   11.2292   -5.1112   15.5886 H   0  0  0  0  0  0  0  0  0  0  0  0
    8.8943   -6.7903   14.8698 H   0  0  0  0  0  0  0  0  0  0  0  0
   -1.8636  -15.5329   20.0579 H   0  0  0  0  0  0  0  0  0  0  0  0
  1  2  1  0
  2  3  1  0
  3  4  2  0
  3  5  1  0
  5  6  1  0
  6  7  1  0
  7  8  2  0
  8  9  1  0
  9 10  1  0
 10 11  2  0
 10 12  1  0
 12 13  1  0
 13 14  1  0
 14 15  1  0
 15 16  2  0
 16 17  1  0
 17 18  1  0
 18 19  2  0
 19 20  1  0
 20 21  2  0
 21 22  1  0
 22 23  2  0
  8 24  1  0
 24 25  2  0
 25  6  1  0
 23 15  1  0
 23 18  1  0
  1 26  1  0
  1 27  1  0
  1 28  1  0
  2 29  1  0
  5 30  1  0
  5 31  1  0
  7 32  1  0
  9 33  1  0
 12 34  1  0
 12 35  1  0
 13 36  1  0
 13 37  1  0
 14 38  1  0
 14 39  1  0
 16 40  1  0
 17 41  1  0
 19 42  1  0
 20 43  1  0
 21 44  1  0
 22 45  1  0
 24 46  1  0
M  END
>  <Energy>  (667) 
1130.6291047834304

>  <compound_id>  (667) 
33768

>  <target_id>  (667) 
1

>  <reference_id>  (667) 
112

>  <inspiration_ids>  (667) 
[112, 93]

>  <energy_score>  (667) 
1100.0054450462235

>  <distance_score>  (667) 
11.326712805685935

>  <path>  (667) 
/opt/xchem-fragalysis-2/maxwin/BulkDock/SCRATCH/511020/C33768-P112/C33768-P112.minimised.mol

>  <scratch_subdir>  (667) 
/opt/xchem-fragalysis-2/maxwin/BulkDock/SCRATCH/511020/C33768-P112

>  <fragmenstein_runtime>  (667) 
30.13968801498413

>  <fragmenstein_outcome>  (667) 
too moved

>  <fragmenstein_mode>  (667) 
expansion

>  <fragmenstein_error>  (667) 


$$$$
C33768-P93
     RDKit          3D

 46 48  0  0  0  0  0  0  0  0999 V2000
   -0.0011  -20.9639   24.1453 C   0  0  0  0  0  0  0  0  0  0  0  0
   -0.7262  -19.9887   23.3842 N   0  0  0  0  0  0  0  0  0  0  0  0
   -1.5956  -20.1350   22.2499 C   0  0  0  0  0  0  0  0  0  0  0  0
   -2.0014  -21.1180   21.6964 O   0  0  0  0  0  0  0  0  0  0  0  0
   -2.1113  -18.7807   21.7754 C   0  0  0  0  0  0  0  0  0  0  0  0
   -1.0399  -17.8521   21.4766 N   0  0  0  0  0  0  0  0  0  0  0  0
   -0.4760  -17.5829   20.2666 C   0  0  0  0  0  0  0  0  0  0  0  0
    0.4878  -16.5713   20.4535 C   0  0  0  0  0  0  0  0  0  0  0  0
    1.3901  -15.9106   19.3188 N   0  0  0  0  0  0  0  0  0  0  0  0
    2.5708  -14.4485   19.3106 C   0  0  0  0  0  0  0  0  0  0  0  0
    2.6890  -14.0184   20.4121 O   0  0  0  0  0  0  0  0  0  0  0  0
    3.6447  -13.1713   17.9393 C   0  0  0  0  0  0  0  0  0  0  0  0
    4.2074  -11.8608   16.1981 C   0  0  0  0  0  0  0  0  0  0  0  0
    5.6598  -10.9719   14.7042 C   0  0  0  0  0  0  0  0  0  0  0  0
    7.8147  -10.4187   14.9789 C   0  0  0  0  0  0  0  0  0  0  0  0
    9.0817  -11.3511   14.8874 C   0  0  0  0  0  0  0  0  0  0  0  0
   10.0630  -11.3181   15.9059 N   0  0  0  0  0  0  0  0  0  0  0  0
   10.5694  -10.0618   15.8082 C   0  0  0  0  0  0  0  0  0  0  0  0
   11.9346   -9.3498   15.8940 C   0  0  0  0  0  0  0  0  0  0  0  0
   12.3079   -7.5759   15.9603 C   0  0  0  0  0  0  0  0  0  0  0  0
   11.2038   -6.6565   15.7468 C   0  0  0  0  0  0  0  0  0  0  0  0
    9.7395   -7.6504   15.3211 C   0  0  0  0  0  0  0  0  0  0  0  0
    9.3636   -9.4012   15.5277 C   0  0  0  0  0  0  0  0  0  0  0  0
    0.4826  -16.4368   21.8722 C   0  0  0  0  0  0  0  0  0  0  0  0
   -0.4582  -17.1764   22.4805 N   0  0  0  0  0  0  0  0  0  0  0  0
    1.0548  -20.8986   23.8730 H   0  0  0  0  0  0  0  0  0  0  0  0
   -0.1224  -20.7394   25.2071 H   0  0  0  0  0  0  0  0  0  0  0  0
   -0.3793  -21.9637   23.9205 H   0  0  0  0  0  0  0  0  0  0  0  0
   -0.5285  -18.9942   23.5270 H   0  0  0  0  0  0  0  0  0  0  0  0
   -2.7535  -18.3367   22.5433 H   0  0  0  0  0  0  0  0  0  0  0  0
   -2.7023  -18.9101   20.8622 H   0  0  0  0  0  0  0  0  0  0  0  0
   -0.7973  -18.1497   19.4045 H   0  0  0  0  0  0  0  0  0  0  0  0
    1.3963  -16.2565   18.5045 H   0  0  0  0  0  0  0  0  0  0  0  0
    4.1816  -14.1646   17.7984 H   0  0  0  0  0  0  0  0  0  0  0  0
    4.2030  -12.6500   18.7276 H   0  0  0  0  0  0  0  0  0  0  0  0
    3.6285  -10.9774   16.5674 H   0  0  0  0  0  0  0  0  0  0  0  0
    3.5497  -12.0110   15.4035 H   0  0  0  0  0  0  0  0  0  0  0  0
    5.1226  -10.1927   14.1492 H   0  0  0  0  0  0  0  0  0  0  0  0
    5.6753  -11.7557   13.8953 H   0  0  0  0  0  0  0  0  0  0  0  0
    9.6417  -11.4516   13.9744 H   0  0  0  0  0  0  0  0  0  0  0  0
   10.6810  -12.1005   16.0438 H   0  0  0  0  0  0  0  0  0  0  0  0
   12.7505  -10.0534   15.6975 H   0  0  0  0  0  0  0  0  0  0  0  0
   13.2641   -7.1294   15.7625 H   0  0  0  0  0  0  0  0  0  0  0  0
   11.3012   -5.5779   15.8269 H   0  0  0  0  0  0  0  0  0  0  0  0
    8.8647   -7.1262   14.8661 H   0  0  0  0  0  0  0  0  0  0  0  0
    1.1242  -15.8041   22.4728 H   0  0  0  0  0  0  0  0  0  0  0  0
  1  2  1  0
  2  3  1  0
  3  4  2  0
  3  5  1  0
  5  6  1  0
  6  7  1  0
  7  8  2  0
  8  9  1  0
  9 10  1  0
 10 11  2  0
 10 12  1  0
 12 13  1  0
 13 14  1  0
 14 15  1  0
 15 16  2  0
 16 17  1  0
 17 18  1  0
 18 19  2  0
 19 20  1  0
 20 21  2  0
 21 22  1  0
 22 23  2  0
  8 24  1  0
 24 25  2  0
 25  6  1  0
 23 15  1  0
 23 18  1  0
  1 26  1  0
  1 27  1  0
  1 28  1  0
  2 29  1  0
  5 30  1  0
  5 31  1  0
  7 32  1  0
  9 33  1  0
 12 34  1  0
 12 35  1  0
 13 36  1  0
 13 37  1  0
 14 38  1  0
 14 39  1  0
 16 40  1  0
 17 41  1  0
 19 42  1  0
 20 43  1  0
 21 44  1  0
 22 45  1  0
 24 46  1  0
M  END
>  <Energy>  (668) 
1187.1666631340065

>  <compound_id>  (668) 
33768

>  <target_id>  (668) 
1

>  <reference_id>  (668) 
93

>  <inspiration_ids>  (668) 
[112, 93]

>  <energy_score>  (668) 
1156.5430033968094

>  <distance_score>  (668) 
13.67762287476117

>  <path>  (668) 
/opt/xchem-fragalysis-2/maxwin/BulkDock/SCRATCH/511020/C33768-P93/C33768-P93.minimised.mol

>  <scratch_subdir>  (668) 
/opt/xchem-fragalysis-2/maxwin/BulkDock/SCRATCH/511020/C33768-P93

>  <fragmenstein_runtime>  (668) 
23.69977641105652

>  <fragmenstein_outcome>  (668) 
too moved

>  <fragmenstein_mode>  (668) 
expansion

>  <fragmenstein_error>  (668) 


$$$$
C33769-P112
     RDKit          3D

 36 38  0  0  0  0  0  0  0  0999 V2000
    8.1489  -19.5447   16.6066 O   0  0  0  0  0  0  0  0  0  0  0  0
    7.7001  -18.9145   15.6816 C   0  0  0  0  0  0  0  0  0  0  0  0
    8.5036  -17.6138   15.1856 C   0  0  0  0  0  0  0  0  0  0  0  0
   10.0798  -17.3918   15.3288 C   0  0  0  0  0  0  0  0  0  0  0  0
   10.8552  -16.9538   16.6273 C   0  0  0  0  0  0  0  0  0  0  0  0
   11.3826  -15.4865   16.9149 C   0  0  0  0  0  0  0  0  0  0  0  0
   11.1185  -14.8038   18.1011 C   0  0  0  0  0  0  0  0  0  0  0  0
   11.7454  -13.5913   18.1225 N   0  0  0  0  0  0  0  0  0  0  0  0
   12.6156  -13.5138   17.0736 C   0  0  0  0  0  0  0  0  0  0  0  0
   13.5933  -12.5442   16.8213 C   0  0  0  0  0  0  0  0  0  0  0  0
   14.4103  -12.7126   15.7072 C   0  0  0  0  0  0  0  0  0  0  0  0
   14.2690  -13.8394   14.9088 C   0  0  0  0  0  0  0  0  0  0  0  0
   13.3105  -14.8272   15.2091 C   0  0  0  0  0  0  0  0  0  0  0  0
   12.4267  -14.6688   16.2974 C   0  0  0  0  0  0  0  0  0  0  0  0
    6.4403  -19.1085   14.8880 N   0  0  0  0  0  0  0  0  0  0  0  0
    5.3690  -20.0290   15.0540 C   0  0  0  0  0  0  0  0  0  0  0  0
    5.2987  -21.0403   15.9934 C   0  0  0  0  0  0  0  0  0  0  0  0
    4.0591  -21.6231   15.9185 N   0  0  0  0  0  0  0  0  0  0  0  0
    3.3557  -21.2190   14.8637 N   0  0  0  0  0  0  0  0  0  0  0  0
    4.1164  -20.2461   14.3445 C   0  0  0  0  0  0  0  0  0  0  0  0
    3.5357  -19.4591   12.7366 Br  0  0  0  0  0  0  0  0  0  0  0  0
    8.3401  -17.6167   14.1009 H   0  0  0  0  0  0  0  0  0  0  0  0
    7.9898  -16.7425   15.5892 H   0  0  0  0  0  0  0  0  0  0  0  0
   10.5132  -18.3590   15.0379 H   0  0  0  0  0  0  0  0  0  0  0  0
   10.3730  -16.6847   14.5455 H   0  0  0  0  0  0  0  0  0  0  0  0
   10.3026  -17.3118   17.5029 H   0  0  0  0  0  0  0  0  0  0  0  0
   11.7838  -17.5457   16.6293 H   0  0  0  0  0  0  0  0  0  0  0  0
   10.5248  -15.0914   18.9582 H   0  0  0  0  0  0  0  0  0  0  0  0
   11.6804  -12.9200   18.8753 H   0  0  0  0  0  0  0  0  0  0  0  0
   13.7531  -11.7393   17.5258 H   0  0  0  0  0  0  0  0  0  0  0  0
   15.2039  -12.0041   15.4872 H   0  0  0  0  0  0  0  0  0  0  0  0
   14.9337  -13.9887   14.0605 H   0  0  0  0  0  0  0  0  0  0  0  0
   13.2580  -15.7256   14.5996 H   0  0  0  0  0  0  0  0  0  0  0  0
    6.3362  -18.3405   14.2335 H   0  0  0  0  0  0  0  0  0  0  0  0
    6.0061  -21.3875   16.7274 H   0  0  0  0  0  0  0  0  0  0  0  0
    3.6643  -22.3396   16.5193 H   0  0  0  0  0  0  0  0  0  0  0  0
  1  2  2  0
  2  3  1  0
  3  4  1  0
  4  5  1  0
  5  6  1  0
  6  7  2  0
  7  8  1  0
  8  9  1  0
  9 10  2  0
 10 11  1  0
 11 12  2  0
 12 13  1  0
 13 14  2  0
  2 15  1  0
 15 16  1  0
 16 17  2  0
 17 18  1  0
 18 19  1  0
 19 20  2  0
 20 21  1  0
 14  6  1  0
 20 16  1  0
 14  9  1  0
  3 22  1  0
  3 23  1  0
  4 24  1  0
  4 25  1  0
  5 26  1  0
  5 27  1  0
  7 28  1  0
  8 29  1  0
 10 30  1  0
 11 31  1  0
 12 32  1  0
 13 33  1  0
 15 34  1  0
 17 35  1  0
 18 36  1  0
M  END
>  <Energy>  (669) 
56.78894006253973

>  <compound_id>  (669) 
33769

>  <target_id>  (669) 
1

>  <reference_id>  (669) 
112

>  <inspiration_ids>  (669) 
[112, 93]

>  <energy_score>  (669) 
23.941739743339042

>  <distance_score>  (669) 
13.980757030333814

>  <path>  (669) 
/opt/xchem-fragalysis-2/maxwin/BulkDock/SCRATCH/511020/C33769-P112/C33769-P112.minimised.mol

>  <scratch_subdir>  (669) 
/opt/xchem-fragalysis-2/maxwin/BulkDock/SCRATCH/511020/C33769-P112

>  <fragmenstein_runtime>  (669) 
17.86834454536438

>  <fragmenstein_outcome>  (669) 
too moved

>  <fragmenstein_mode>  (669) 
expansion

>  <fragmenstein_error>  (669) 


$$$$
C33769-P93
     RDKit          3D

 36 38  0  0  0  0  0  0  0  0999 V2000
    7.6679  -20.8944   14.8704 O   0  0  0  0  0  0  0  0  0  0  0  0
    7.0979  -19.8391   14.8283 C   0  0  0  0  0  0  0  0  0  0  0  0
    7.9338  -18.4711   14.9205 C   0  0  0  0  0  0  0  0  0  0  0  0
    9.3737  -18.3325   15.6021 C   0  0  0  0  0  0  0  0  0  0  0  0
    9.9554  -16.8629   15.4421 C   0  0  0  0  0  0  0  0  0  0  0  0
   11.2278  -16.2917   16.1377 C   0  0  0  0  0  0  0  0  0  0  0  0
   12.3943  -17.0019   16.3471 C   0  0  0  0  0  0  0  0  0  0  0  0
   13.3732  -16.1687   16.8226 N   0  0  0  0  0  0  0  0  0  0  0  0
   12.9154  -14.8826   16.9268 C   0  0  0  0  0  0  0  0  0  0  0  0
   13.6130  -13.7256   17.3094 C   0  0  0  0  0  0  0  0  0  0  0  0
   12.9308  -12.5143   17.3337 C   0  0  0  0  0  0  0  0  0  0  0  0
   11.5877  -12.4651   17.0019 C   0  0  0  0  0  0  0  0  0  0  0  0
   10.9167  -13.6449   16.6161 C   0  0  0  0  0  0  0  0  0  0  0  0
   11.5685  -14.9040   16.5545 C   0  0  0  0  0  0  0  0  0  0  0  0
    5.6513  -19.5247   14.6659 N   0  0  0  0  0  0  0  0  0  0  0  0
    4.5173  -20.3735   14.6073 C   0  0  0  0  0  0  0  0  0  0  0  0
    3.2924  -19.9618   15.1167 C   0  0  0  0  0  0  0  0  0  0  0  0
    2.3471  -20.9152   14.8469 N   0  0  0  0  0  0  0  0  0  0  0  0
    2.8603  -21.9754   14.2286 N   0  0  0  0  0  0  0  0  0  0  0  0
    4.1508  -21.6488   14.0652 C   0  0  0  0  0  0  0  0  0  0  0  0
    5.1751  -22.7632   12.9667 Br  0  0  0  0  0  0  0  0  0  0  0  0
    8.0606  -18.1798   13.8730 H   0  0  0  0  0  0  0  0  0  0  0  0
    7.2906  -17.7308   15.4057 H   0  0  0  0  0  0  0  0  0  0  0  0
   10.0600  -19.0485   15.1357 H   0  0  0  0  0  0  0  0  0  0  0  0
    9.3066  -18.6078   16.6586 H   0  0  0  0  0  0  0  0  0  0  0  0
    9.1358  -16.1703   15.6291 H   0  0  0  0  0  0  0  0  0  0  0  0
   10.2113  -16.7958   14.3846 H   0  0  0  0  0  0  0  0  0  0  0  0
   12.6226  -18.0436   16.1626 H   0  0  0  0  0  0  0  0  0  0  0  0
   14.3191  -16.4537   17.0338 H   0  0  0  0  0  0  0  0  0  0  0  0
   14.6663  -13.7654   17.5715 H   0  0  0  0  0  0  0  0  0  0  0  0
   13.4912  -11.6296   17.6099 H   0  0  0  0  0  0  0  0  0  0  0  0
   11.0490  -11.5210   17.0006 H   0  0  0  0  0  0  0  0  0  0  0  0
    9.8939  -13.5550   16.2871 H   0  0  0  0  0  0  0  0  0  0  0  0
    5.5147  -18.5251   14.7585 H   0  0  0  0  0  0  0  0  0  0  0  0
    3.0035  -19.0732   15.6515 H   0  0  0  0  0  0  0  0  0  0  0  0
    1.3430  -20.8955   15.0260 H   0  0  0  0  0  0  0  0  0  0  0  0
  1  2  2  0
  2  3  1  0
  3  4  1  0
  4  5  1  0
  5  6  1  0
  6  7  2  0
  7  8  1  0
  8  9  1  0
  9 10  2  0
 10 11  1  0
 11 12  2  0
 12 13  1  0
 13 14  2  0
  2 15  1  0
 15 16  1  0
 16 17  2  0
 17 18  1  0
 18 19  1  0
 19 20  2  0
 20 21  1  0
 14  6  1  0
 20 16  1  0
 14  9  1  0
  3 22  1  0
  3 23  1  0
  4 24  1  0
  4 25  1  0
  5 26  1  0
  5 27  1  0
  7 28  1  0
  8 29  1  0
 10 30  1  0
 11 31  1  0
 12 32  1  0
 13 33  1  0
 15 34  1  0
 17 35  1  0
 18 36  1  0
M  END
>  <Energy>  (670) 
55.934839878113422

>  <compound_id>  (670) 
33769

>  <target_id>  (670) 
1

>  <reference_id>  (670) 
93

>  <inspiration_ids>  (670) 
[112, 93]

>  <energy_score>  (670) 
23.08763955891618

>  <distance_score>  (670) 
13.87215734085506

>  <path>  (670) 
/opt/xchem-fragalysis-2/maxwin/BulkDock/SCRATCH/511020/C33769-P93/C33769-P93.minimised.mol

>  <scratch_subdir>  (670) 
/opt/xchem-fragalysis-2/maxwin/BulkDock/SCRATCH/511020/C33769-P93

>  <fragmenstein_runtime>  (670) 
11.856743097305298

>  <fragmenstein_outcome>  (670) 
too moved

>  <fragmenstein_mode>  (670) 
expansion

>  <fragmenstein_error>  (670) 


$$$$
C33770-P112
     RDKit          3D

 42 44  0  0  0  0  0  0  0  0999 V2000
    2.0595  -19.9424   17.2785 C   0  0  0  0  0  0  0  0  0  0  0  0
    2.8236  -18.8448   16.5304 C   0  0  0  0  0  0  0  0  0  0  0  0
    2.9732  -17.5586   17.2396 N   0  0  0  0  0  0  0  0  0  0  0  0
    2.1309  -16.4122   17.3932 C   0  0  0  0  0  0  0  0  0  0  0  0
    2.5705  -15.3343   18.1763 C   0  0  0  0  0  0  0  0  0  0  0  0
    2.7583  -14.1888   17.4564 N   0  0  0  0  0  0  0  0  0  0  0  0
    3.7693  -12.7895   17.7464 C   0  0  0  0  0  0  0  0  0  0  0  0
    4.3926  -12.6323   18.7680 O   0  0  0  0  0  0  0  0  0  0  0  0
    4.0426  -11.4258   16.1272 C   0  0  0  0  0  0  0  0  0  0  0  0
    5.4104  -10.7481   14.5934 C   0  0  0  0  0  0  0  0  0  0  0  0
    5.5831  -11.7417   13.5919 C   0  0  0  0  0  0  0  0  0  0  0  0
    7.4189  -10.2231   14.2988 C   0  0  0  0  0  0  0  0  0  0  0  0
    8.9702  -10.9015   14.3603 C   0  0  0  0  0  0  0  0  0  0  0  0
    9.4380  -11.2070   15.6332 N   0  0  0  0  0  0  0  0  0  0  0  0
    9.3684   -9.8993   15.7205 C   0  0  0  0  0  0  0  0  0  0  0  0
   10.2698   -8.9459   15.5226 C   0  0  0  0  0  0  0  0  0  0  0  0
    9.5979   -7.3992   15.2168 C   0  0  0  0  0  0  0  0  0  0  0  0
    8.1889   -6.8065   14.9213 C   0  0  0  0  0  0  0  0  0  0  0  0
    7.2390   -7.7687   14.9104 C   0  0  0  0  0  0  0  0  0  0  0  0
    8.0628   -9.5015   15.2388 C   0  0  0  0  0  0  0  0  0  0  0  0
    3.8667  -15.9110   18.0158 C   0  0  0  0  0  0  0  0  0  0  0  0
    4.1023  -16.8883   17.1137 N   0  0  0  0  0  0  0  0  0  0  0  0
    2.6416  -20.3084   18.1259 H   0  0  0  0  0  0  0  0  0  0  0  0
    1.9225  -20.8114   16.6294 H   0  0  0  0  0  0  0  0  0  0  0  0
    1.1085  -19.6116   17.6855 H   0  0  0  0  0  0  0  0  0  0  0  0
    2.4492  -18.6582   15.5213 H   0  0  0  0  0  0  0  0  0  0  0  0
    3.8458  -19.2145   16.3724 H   0  0  0  0  0  0  0  0  0  0  0  0
    2.1143  -16.1895   16.3354 H   0  0  0  0  0  0  0  0  0  0  0  0
    2.2759  -14.0632   16.5784 H   0  0  0  0  0  0  0  0  0  0  0  0
    3.4150  -11.7290   15.3874 H   0  0  0  0  0  0  0  0  0  0  0  0
    3.5462  -10.5385   16.5525 H   0  0  0  0  0  0  0  0  0  0  0  0
    4.8610   -9.9340   14.1006 H   0  0  0  0  0  0  0  0  0  0  0  0
    4.9043  -12.3719   14.0265 H   0  0  0  0  0  0  0  0  0  0  0  0
    6.4554  -12.3515   13.4133 H   0  0  0  0  0  0  0  0  0  0  0  0
    5.3900  -11.0888   12.7841 H   0  0  0  0  0  0  0  0  0  0  0  0
    9.8301  -10.7633   13.6995 H   0  0  0  0  0  0  0  0  0  0  0  0
   10.2771  -11.7425   15.7835 H   0  0  0  0  0  0  0  0  0  0  0  0
   11.3154   -9.1320   15.7925 H   0  0  0  0  0  0  0  0  0  0  0  0
   10.2914   -6.5929   15.4661 H   0  0  0  0  0  0  0  0  0  0  0  0
    7.8230   -5.8451   15.1417 H   0  0  0  0  0  0  0  0  0  0  0  0
    6.3849   -7.7274   14.2370 H   0  0  0  0  0  0  0  0  0  0  0  0
    4.6511  -15.2650   18.2367 H   0  0  0  0  0  0  0  0  0  0  0  0
  1  2  1  0
  2  3  1  0
  3  4  1  0
  4  5  2  0
  5  6  1  0
  6  7  1  0
  7  8  2  0
  7  9  1  0
  9 10  1  0
 10 11  1  0
 10 12  1  0
 12 13  2  0
 13 14  1  0
 14 15  1  0
 15 16  2  0
 16 17  1  0
 17 18  2  0
 18 19  1  0
 19 20  2  0
  5 21  1  0
 21 22  2  0
 22  3  1  0
 20 12  1  0
 20 15  1  0
  1 23  1  0
  1 24  1  0
  1 25  1  0
  2 26  1  0
  2 27  1  0
  4 28  1  0
  6 29  1  0
  9 30  1  0
  9 31  1  0
 10 32  1  0
 11 33  1  0
 11 34  1  0
 11 35  1  0
 13 36  1  0
 14 37  1  0
 16 38  1  0
 17 39  1  0
 18 40  1  0
 19 41  1  0
 21 42  1  0
M  END
>  <Energy>  (671) 
907.648591806676

>  <compound_id>  (671) 
33770

>  <target_id>  (671) 
1

>  <reference_id>  (671) 
112

>  <inspiration_ids>  (671) 
[112, 93]

>  <energy_score>  (671) 
842.7945860661182

>  <distance_score>  (671) 
14.035341334311374

>  <path>  (671) 
/opt/xchem-fragalysis-2/maxwin/BulkDock/SCRATCH/511020/C33770-P112/C33770-P112.minimised.mol

>  <scratch_subdir>  (671) 
/opt/xchem-fragalysis-2/maxwin/BulkDock/SCRATCH/511020/C33770-P112

>  <fragmenstein_runtime>  (671) 
19.17138433456421

>  <fragmenstein_outcome>  (671) 
too moved

>  <fragmenstein_mode>  (671) 
expansion

>  <fragmenstein_error>  (671) 


$$$$
C33770-P93
     RDKit          3D

 42 44  0  0  0  0  0  0  0  0999 V2000
   -2.7584  -17.7787    9.3704 C   0  0  0  0  0  0  0  0  0  0  0  0
   -1.7320  -16.5752    9.5425 C   0  0  0  0  0  0  0  0  0  0  0  0
   -0.9787  -15.7088   10.5795 N   0  0  0  0  0  0  0  0  0  0  0  0
   -1.2166  -14.3418   11.0334 C   0  0  0  0  0  0  0  0  0  0  0  0
   -0.1187  -13.2902   11.3155 C   0  0  0  0  0  0  0  0  0  0  0  0
    0.7829  -12.2168   12.2225 N   0  0  0  0  0  0  0  0  0  0  0  0
    2.3249  -11.1843   11.7644 C   0  0  0  0  0  0  0  0  0  0  0  0
    2.7796  -11.1019   10.6289 O   0  0  0  0  0  0  0  0  0  0  0  0
    3.6445  -10.2438   13.1281 C   0  0  0  0  0  0  0  0  0  0  0  0
    5.0671   -9.0262   13.9365 C   0  0  0  0  0  0  0  0  0  0  0  0
    5.6430  -10.6140   14.0094 C   0  0  0  0  0  0  0  0  0  0  0  0
    6.5341   -7.6414   14.3333 C   0  0  0  0  0  0  0  0  0  0  0  0
    6.6821   -6.8637   15.5321 C   0  0  0  0  0  0  0  0  0  0  0  0
    8.0268   -7.4039   14.9015 N   0  0  0  0  0  0  0  0  0  0  0  0
    9.6215   -7.3896   15.2361 C   0  0  0  0  0  0  0  0  0  0  0  0
   11.0812   -6.3443   15.6847 C   0  0  0  0  0  0  0  0  0  0  0  0
   11.3116   -4.7832   15.7168 C   0  0  0  0  0  0  0  0  0  0  0  0
   10.3330   -4.0053   15.0877 C   0  0  0  0  0  0  0  0  0  0  0  0
    8.8432   -4.6713   14.7692 C   0  0  0  0  0  0  0  0  0  0  0  0
    8.2792   -6.5434   14.7593 C   0  0  0  0  0  0  0  0  0  0  0  0
    0.3983  -14.7390   11.7894 C   0  0  0  0  0  0  0  0  0  0  0  0
    0.2000  -15.9405   11.1471 N   0  0  0  0  0  0  0  0  0  0  0  0
   -2.3660  -18.7412    9.7126 H   0  0  0  0  0  0  0  0  0  0  0  0
   -2.9170  -17.9086    8.2906 H   0  0  0  0  0  0  0  0  0  0  0  0
   -3.7555  -17.5873    9.7765 H   0  0  0  0  0  0  0  0  0  0  0  0
   -2.3480  -15.8124    9.0486 H   0  0  0  0  0  0  0  0  0  0  0  0
   -0.8925  -16.9660    8.9461 H   0  0  0  0  0  0  0  0  0  0  0  0
   -2.2124  -14.4741   11.4032 H   0  0  0  0  0  0  0  0  0  0  0  0
    0.6513  -12.2011   13.2227 H   0  0  0  0  0  0  0  0  0  0  0  0
    4.3823  -10.8541   12.7709 H   0  0  0  0  0  0  0  0  0  0  0  0
    3.3595  -10.6798   14.0801 H   0  0  0  0  0  0  0  0  0  0  0  0
    4.5175   -8.2504   13.3800 H   0  0  0  0  0  0  0  0  0  0  0  0
    5.0036  -11.1974   14.6668 H   0  0  0  0  0  0  0  0  0  0  0  0
    6.6912  -10.5206   14.1143 H   0  0  0  0  0  0  0  0  0  0  0  0
    5.7555  -11.3613   13.2251 H   0  0  0  0  0  0  0  0  0  0  0  0
    6.4364   -6.4539   16.5055 H   0  0  0  0  0  0  0  0  0  0  0  0
    7.9413   -8.4105   14.9348 H   0  0  0  0  0  0  0  0  0  0  0  0
   11.9908   -6.8814   16.0226 H   0  0  0  0  0  0  0  0  0  0  0  0
   12.2572   -4.3905   16.0728 H   0  0  0  0  0  0  0  0  0  0  0  0
   10.4312   -2.9281   14.9687 H   0  0  0  0  0  0  0  0  0  0  0  0
    8.2813   -3.6610   14.7276 H   0  0  0  0  0  0  0  0  0  0  0  0
    1.0197  -14.7695   12.6433 H   0  0  0  0  0  0  0  0  0  0  0  0
  1  2  1  0
  2  3  1  0
  3  4  1  0
  4  5  2  0
  5  6  1  0
  6  7  1  0
  7  8  2  0
  7  9  1  0
  9 10  1  0
 10 11  1  0
 10 12  1  0
 12 13  2  0
 13 14  1  0
 14 15  1  0
 15 16  2  0
 16 17  1  0
 17 18  2  0
 18 19  1  0
 19 20  2  0
  5 21  1  0
 21 22  2  0
 22  3  1  0
 20 12  1  0
 20 15  1  0
  1 23  1  0
  1 24  1  0
  1 25  1  0
  2 26  1  0
  2 27  1  0
  4 28  1  0
  6 29  1  0
  9 30  1  0
  9 31  1  0
 10 32  1  0
 11 33  1  0
 11 34  1  0
 11 35  1  0
 13 36  1  0
 14 37  1  0
 16 38  1  0
 17 39  1  0
 18 40  1  0
 19 41  1  0
 21 42  1  0
M  END
>  <Energy>  (672) 
1513.789021665342

>  <compound_id>  (672) 
33770

>  <target_id>  (672) 
1

>  <reference_id>  (672) 
93

>  <inspiration_ids>  (672) 
[112, 93]

>  <energy_score>  (672) 
1448.935015924794

>  <distance_score>  (672) 
11.752477459233196

>  <path>  (672) 
/opt/xchem-fragalysis-2/maxwin/BulkDock/SCRATCH/511020/C33770-P93/C33770-P93.minimised.mol

>  <scratch_subdir>  (672) 
/opt/xchem-fragalysis-2/maxwin/BulkDock/SCRATCH/511020/C33770-P93

>  <fragmenstein_runtime>  (672) 
16.819620370864868

>  <fragmenstein_outcome>  (672) 
too moved

>  <fragmenstein_mode>  (672) 
expansion

>  <fragmenstein_error>  (672) 


$$$$
C54259-P112
     RDKit          3D

 32 34  0  0  0  0  0  0  0  0999 V2000
    6.2786   -7.7859   13.9759 C   0  0  0  0  0  0  0  0  0  0  0  0
    5.3287   -9.1655   14.0570 N   0  0  0  0  0  0  0  0  0  0  0  0
    5.2019  -10.4728   13.4502 C   0  0  0  0  0  0  0  0  0  0  0  0
    3.8831  -10.1057   12.8888 C   0  0  0  0  0  0  0  0  0  0  0  0
    2.7911  -10.4453   11.4003 C   0  0  0  0  0  0  0  0  0  0  0  0
    1.5970  -10.0406   11.2839 O   0  0  0  0  0  0  0  0  0  0  0  0
    2.8007  -11.5493   10.2158 C   0  0  0  0  0  0  0  0  0  0  0  0
    1.4064  -12.3406   10.2733 N   0  0  0  0  0  0  0  0  0  0  0  0
    0.9100  -13.4607    9.4884 C   0  0  0  0  0  0  0  0  0  0  0  0
    1.3883  -14.0236    8.5447 O   0  0  0  0  0  0  0  0  0  0  0  0
   -0.3920  -14.0994   10.0121 C   0  0  0  0  0  0  0  0  0  0  0  0
   -1.0697  -14.0710   11.2406 C   0  0  0  0  0  0  0  0  0  0  0  0
   -2.1465  -15.0361   11.1890 C   0  0  0  0  0  0  0  0  0  0  0  0
   -3.4186  -15.6914   12.1907 S   0  0  0  0  0  0  0  0  0  0  0  0
   -3.9319  -16.7148   10.9000 C   0  0  0  0  0  0  0  0  0  0  0  0
   -3.1614  -16.5906    9.7610 C   0  0  0  0  0  0  0  0  0  0  0  0
   -2.1349  -15.6127    9.9589 C   0  0  0  0  0  0  0  0  0  0  0  0
   -1.0820  -15.0623    9.2505 N   0  0  0  0  0  0  0  0  0  0  0  0
    3.6726  -10.0420   14.1395 C   0  0  0  0  0  0  0  0  0  0  0  0
    4.1474   -8.7660   13.8635 N   0  0  0  0  0  0  0  0  0  0  0  0
    6.9566   -7.6930   13.1207 H   0  0  0  0  0  0  0  0  0  0  0  0
    6.6212   -7.3769   14.9083 H   0  0  0  0  0  0  0  0  0  0  0  0
    5.4913   -7.1964   13.5980 H   0  0  0  0  0  0  0  0  0  0  0  0
    5.9538  -11.2128   13.3127 H   0  0  0  0  0  0  0  0  0  0  0  0
    3.6585  -12.2078   10.2356 H   0  0  0  0  0  0  0  0  0  0  0  0
    2.7984  -11.1270    9.2181 H   0  0  0  0  0  0  0  0  0  0  0  0
    0.6990  -12.0698   10.9492 H   0  0  0  0  0  0  0  0  0  0  0  0
   -0.8049  -13.4739   12.1043 H   0  0  0  0  0  0  0  0  0  0  0  0
   -4.7763  -17.3718   11.0570 H   0  0  0  0  0  0  0  0  0  0  0  0
   -3.3185  -17.1586    8.8535 H   0  0  0  0  0  0  0  0  0  0  0  0
   -0.8176  -15.3467    8.3156 H   0  0  0  0  0  0  0  0  0  0  0  0
    3.8903  -10.6849   15.0271 H   0  0  0  0  0  0  0  0  0  0  0  0
  1  2  1  0
  2  3  1  0
  3  4  2  0
  4  5  1  0
  5  6  2  0
  5  7  1  0
  7  8  1  0
  8  9  1  0
  9 10  2  0
  9 11  1  0
 11 12  2  0
 12 13  1  0
 13 14  1  0
 14 15  1  0
 15 16  2  0
 16 17  1  0
 17 18  1  0
  4 19  1  0
 19 20  2  0
 20  2  1  0
 18 11  1  0
 17 13  2  0
  1 21  1  0
  1 22  1  0
  1 23  1  0
  3 24  1  0
  7 25  1  0
  7 26  1  0
  8 27  1  0
 12 28  1  0
 15 29  1  0
 16 30  1  0
 18 31  1  0
 19 32  1  0
M  END
>  <Energy>  (673) 
328.44693745810656

>  <compound_id>  (673) 
54259

>  <target_id>  (673) 
1

>  <reference_id>  (673) 
112

>  <inspiration_ids>  (673) 
[112, 93]

>  <energy_score>  (673) 
267.12613086397016

>  <distance_score>  (673) 
14.172432783179215

>  <path>  (673) 
/opt/xchem-fragalysis-2/maxwin/BulkDock/SCRATCH/511020/C54259-P112/C54259-P112.minimised.mol

>  <scratch_subdir>  (673) 
/opt/xchem-fragalysis-2/maxwin/BulkDock/SCRATCH/511020/C54259-P112

>  <fragmenstein_runtime>  (673) 
7.842800855636597

>  <fragmenstein_outcome>  (673) 
too moved

>  <fragmenstein_mode>  (673) 
expansion

>  <fragmenstein_error>  (673) 


$$$$
C54259-P93
     RDKit          3D

 32 34  0  0  0  0  0  0  0  0999 V2000
    9.5642   -7.7651   15.0565 C   0  0  0  0  0  0  0  0  0  0  0  0
    8.1659   -7.2758   14.2712 N   0  0  0  0  0  0  0  0  0  0  0  0
    6.5746   -7.7696   14.5799 C   0  0  0  0  0  0  0  0  0  0  0  0
    5.4600   -8.0939   13.5686 C   0  0  0  0  0  0  0  0  0  0  0  0
    4.2681   -9.6558   13.3251 C   0  0  0  0  0  0  0  0  0  0  0  0
    4.5703  -10.5908   14.0959 O   0  0  0  0  0  0  0  0  0  0  0  0
    3.1046  -10.4160   11.7474 C   0  0  0  0  0  0  0  0  0  0  0  0
    1.6540  -11.1736   11.4515 N   0  0  0  0  0  0  0  0  0  0  0  0
    1.2462  -12.0798   10.3827 C   0  0  0  0  0  0  0  0  0  0  0  0
    1.8315  -12.4413    9.4014 O   0  0  0  0  0  0  0  0  0  0  0  0
   -0.1360  -12.7562   10.6361 C   0  0  0  0  0  0  0  0  0  0  0  0
   -0.8724  -12.9759   11.8157 C   0  0  0  0  0  0  0  0  0  0  0  0
   -1.9188  -13.9306   11.5444 C   0  0  0  0  0  0  0  0  0  0  0  0
   -3.2024  -14.7860   12.3638 S   0  0  0  0  0  0  0  0  0  0  0  0
   -3.6130  -15.5981   10.8993 C   0  0  0  0  0  0  0  0  0  0  0  0
   -2.8093  -15.2460    9.8315 C   0  0  0  0  0  0  0  0  0  0  0  0
   -1.8336  -14.2769   10.2347 C   0  0  0  0  0  0  0  0  0  0  0  0
   -0.7684  -13.5768    9.6815 N   0  0  0  0  0  0  0  0  0  0  0  0
    6.4115   -7.4175   12.5068 C   0  0  0  0  0  0  0  0  0  0  0  0
    7.7549   -7.3821   12.6248 N   0  0  0  0  0  0  0  0  0  0  0  0
    9.8843   -8.7959   14.7685 H   0  0  0  0  0  0  0  0  0  0  0  0
    9.5590   -8.6024   15.7960 H   0  0  0  0  0  0  0  0  0  0  0  0
   10.2814   -6.9783   15.2570 H   0  0  0  0  0  0  0  0  0  0  0  0
    6.4783   -7.1082   15.4549 H   0  0  0  0  0  0  0  0  0  0  0  0
    3.6388  -11.1182   11.0688 H   0  0  0  0  0  0  0  0  0  0  0  0
    3.0318   -9.5833   11.0916 H   0  0  0  0  0  0  0  0  0  0  0  0
    0.8870  -11.0336   12.0689 H   0  0  0  0  0  0  0  0  0  0  0  0
   -0.6463  -12.5828   12.7945 H   0  0  0  0  0  0  0  0  0  0  0  0
   -4.4244  -16.3133   10.9058 H   0  0  0  0  0  0  0  0  0  0  0  0
   -2.9048  -15.6617    8.8370 H   0  0  0  0  0  0  0  0  0  0  0  0
   -0.4422  -13.7075    8.7322 H   0  0  0  0  0  0  0  0  0  0  0  0
    6.0952   -7.0569   11.5274 H   0  0  0  0  0  0  0  0  0  0  0  0
  1  2  1  0
  2  3  1  0
  3  4  2  0
  4  5  1  0
  5  6  2  0
  5  7  1  0
  7  8  1  0
  8  9  1  0
  9 10  2  0
  9 11  1  0
 11 12  2  0
 12 13  1  0
 13 14  1  0
 14 15  1  0
 15 16  2  0
 16 17  1  0
 17 18  1  0
  4 19  1  0
 19 20  2  0
 20  2  1  0
 18 11  1  0
 17 13  2  0
  1 21  1  0
  1 22  1  0
  1 23  1  0
  3 24  1  0
  7 25  1  0
  7 26  1  0
  8 27  1  0
 12 28  1  0
 15 29  1  0
 16 30  1  0
 18 31  1  0
 19 32  1  0
M  END
>  <Energy>  (674) 
459.96299798626995

>  <compound_id>  (674) 
54259

>  <target_id>  (674) 
1

>  <reference_id>  (674) 
93

>  <inspiration_ids>  (674) 
[112, 93]

>  <energy_score>  (674) 
398.64219139213395

>  <distance_score>  (674) 
13.897187226260257

>  <path>  (674) 
/opt/xchem-fragalysis-2/maxwin/BulkDock/SCRATCH/511020/C54259-P93/C54259-P93.minimised.mol

>  <scratch_subdir>  (674) 
/opt/xchem-fragalysis-2/maxwin/BulkDock/SCRATCH/511020/C54259-P93

>  <fragmenstein_runtime>  (674) 
7.41924786567688

>  <fragmenstein_outcome>  (674) 
too moved

>  <fragmenstein_mode>  (674) 
expansion

>  <fragmenstein_error>  (674) 


$$$$
C54267-P112
     RDKit          3D

 40 43  0  0  0  0  0  0  0  0999 V2000
   -2.9899  -10.4491   19.2882 O   0  0  0  0  0  0  0  0  0  0  0  0
   -3.2772  -10.0341   18.1994 C   0  0  0  0  0  0  0  0  0  0  0  0
   -4.2850  -10.5084   17.2261 N   0  0  0  0  0  0  0  0  0  0  0  0
   -5.1470  -11.6542   17.2509 C   0  0  0  0  0  0  0  0  0  0  0  0
   -5.2167  -12.7428   18.1743 C   0  0  0  0  0  0  0  0  0  0  0  0
   -6.0494  -13.7370   17.8128 N   0  0  0  0  0  0  0  0  0  0  0  0
   -6.5562  -13.3327   16.6294 N   0  0  0  0  0  0  0  0  0  0  0  0
   -7.4670  -14.1975   15.8668 C   0  0  0  0  0  0  0  0  0  0  0  0
   -8.7756  -14.5939   16.5723 C   0  0  0  0  0  0  0  0  0  0  0  0
   -9.3450  -15.7437   15.7344 C   0  0  0  0  0  0  0  0  0  0  0  0
   -8.1399  -16.4145   15.0814 C   0  0  0  0  0  0  0  0  0  0  0  0
   -6.9150  -15.5815   15.4832 C   0  0  0  0  0  0  0  0  0  0  0  0
   -6.0667  -12.0715   16.2821 C   0  0  0  0  0  0  0  0  0  0  0  0
   -2.3467   -8.8784   17.7333 C   0  0  0  0  0  0  0  0  0  0  0  0
   -2.1772   -8.0681   16.5995 C   0  0  0  0  0  0  0  0  0  0  0  0
   -0.9234   -7.3203   16.6797 C   0  0  0  0  0  0  0  0  0  0  0  0
   -0.1925   -6.4563   15.8180 C   0  0  0  0  0  0  0  0  0  0  0  0
    1.0853   -5.9889   16.1845 C   0  0  0  0  0  0  0  0  0  0  0  0
    1.6427   -6.3562   17.4041 C   0  0  0  0  0  0  0  0  0  0  0  0
    0.9313   -7.1831   18.2846 C   0  0  0  0  0  0  0  0  0  0  0  0
   -0.3484   -7.6427   17.8977 C   0  0  0  0  0  0  0  0  0  0  0  0
   -1.2410   -8.4960   18.5359 N   0  0  0  0  0  0  0  0  0  0  0  0
   -4.3145   -9.8697   16.4406 H   0  0  0  0  0  0  0  0  0  0  0  0
   -4.6554  -12.8519   19.0943 H   0  0  0  0  0  0  0  0  0  0  0  0
   -7.7114  -13.6458   14.9491 H   0  0  0  0  0  0  0  0  0  0  0  0
   -8.5778  -14.9433   17.5933 H   0  0  0  0  0  0  0  0  0  0  0  0
   -9.4748  -13.7545   16.6423 H   0  0  0  0  0  0  0  0  0  0  0  0
  -10.0151  -15.3503   14.9613 H   0  0  0  0  0  0  0  0  0  0  0  0
   -9.9226  -16.4413   16.3490 H   0  0  0  0  0  0  0  0  0  0  0  0
   -8.0292  -17.4546   15.4048 H   0  0  0  0  0  0  0  0  0  0  0  0
   -8.2588  -16.4197   13.9920 H   0  0  0  0  0  0  0  0  0  0  0  0
   -6.4164  -16.0544   16.3384 H   0  0  0  0  0  0  0  0  0  0  0  0
   -6.1808  -15.5189   14.6733 H   0  0  0  0  0  0  0  0  0  0  0  0
   -6.3749  -11.6159   15.3516 H   0  0  0  0  0  0  0  0  0  0  0  0
   -2.8290   -8.0603   15.7341 H   0  0  0  0  0  0  0  0  0  0  0  0
   -0.6067   -6.1843   14.8503 H   0  0  0  0  0  0  0  0  0  0  0  0
    1.6371   -5.3464   15.5031 H   0  0  0  0  0  0  0  0  0  0  0  0
    2.6324   -6.0018   17.6798 H   0  0  0  0  0  0  0  0  0  0  0  0
    1.3624   -7.4867   19.2338 H   0  0  0  0  0  0  0  0  0  0  0  0
   -1.0030   -8.9985   19.3832 H   0  0  0  0  0  0  0  0  0  0  0  0
  1  2  2  0
  2  3  1  0
  3  4  1  0
  4  5  1  0
  5  6  2  0
  6  7  1  0
  7  8  1  0
  8  9  1  0
  9 10  1  0
 10 11  1  0
 11 12  1  0
  7 13  1  0
  2 14  1  0
 14 15  2  0
 15 16  1  0
 16 17  2  0
 17 18  1  0
 18 19  2  0
 19 20  1  0
 20 21  2  0
 21 22  1  0
 13  4  2  0
 22 14  1  0
 12  8  1  0
 21 16  1  0
  3 23  1  0
  5 24  1  0
  8 25  1  0
  9 26  1  0
  9 27  1  0
 10 28  1  0
 10 29  1  0
 11 30  1  0
 11 31  1  0
 12 32  1  0
 12 33  1  0
 13 34  1  0
 15 35  1  0
 17 36  1  0
 18 37  1  0
 19 38  1  0
 20 39  1  0
 22 40  1  0
M  END
>  <Energy>  (675) 
28.536152459340972

>  <compound_id>  (675) 
54267

>  <target_id>  (675) 
1

>  <reference_id>  (675) 
112

>  <inspiration_ids>  (675) 
[112, 93]

>  <energy_score>  (675) 
-34.716983975108974

>  <distance_score>  (675) 
14.17946547515506

>  <path>  (675) 
/opt/xchem-fragalysis-2/maxwin/BulkDock/SCRATCH/511020/C54267-P112/C54267-P112.minimised.mol

>  <scratch_subdir>  (675) 
/opt/xchem-fragalysis-2/maxwin/BulkDock/SCRATCH/511020/C54267-P112

>  <fragmenstein_runtime>  (675) 
12.990527629852295

>  <fragmenstein_outcome>  (675) 
too moved

>  <fragmenstein_mode>  (675) 
expansion

>  <fragmenstein_error>  (675) 


$$$$
C54267-P93
     RDKit          3D

 40 43  0  0  0  0  0  0  0  0999 V2000
    1.2299  -12.3941   14.4123 O   0  0  0  0  0  0  0  0  0  0  0  0
    1.8504  -12.7146   15.4219 C   0  0  0  0  0  0  0  0  0  0  0  0
    0.8969  -13.5391   16.9264 N   0  0  0  0  0  0  0  0  0  0  0  0
   -0.9587  -13.8237   17.2279 C   0  0  0  0  0  0  0  0  0  0  0  0
   -1.8536  -14.7396   18.4074 C   0  0  0  0  0  0  0  0  0  0  0  0
   -3.0839  -15.2086   18.1466 N   0  0  0  0  0  0  0  0  0  0  0  0
   -3.1832  -14.8865   16.8589 N   0  0  0  0  0  0  0  0  0  0  0  0
   -4.3584  -15.3509   16.0848 C   0  0  0  0  0  0  0  0  0  0  0  0
   -4.5744  -16.8823   15.9048 C   0  0  0  0  0  0  0  0  0  0  0  0
   -6.0442  -17.0843   15.5097 C   0  0  0  0  0  0  0  0  0  0  0  0
   -6.7534  -15.7913   15.8852 C   0  0  0  0  0  0  0  0  0  0  0  0
   -5.7317  -14.9857   16.6918 C   0  0  0  0  0  0  0  0  0  0  0  0
   -2.2523  -13.7840   16.6743 C   0  0  0  0  0  0  0  0  0  0  0  0
    3.7626  -12.0406   15.2639 C   0  0  0  0  0  0  0  0  0  0  0  0
    5.0471  -12.2866   14.1592 C   0  0  0  0  0  0  0  0  0  0  0  0
    5.6818  -11.3317   13.2610 C   0  0  0  0  0  0  0  0  0  0  0  0
    6.7994  -11.2584   12.4001 C   0  0  0  0  0  0  0  0  0  0  0  0
    7.1078  -10.0398   11.7899 C   0  0  0  0  0  0  0  0  0  0  0  0
    6.3011   -8.9388   12.0183 C   0  0  0  0  0  0  0  0  0  0  0  0
    5.1798   -9.0473   12.8533 C   0  0  0  0  0  0  0  0  0  0  0  0
    4.8682  -10.2951   13.4604 C   0  0  0  0  0  0  0  0  0  0  0  0
    4.0601  -10.7573   14.5731 N   0  0  0  0  0  0  0  0  0  0  0  0
    1.5852  -13.8266   17.6460 H   0  0  0  0  0  0  0  0  0  0  0  0
   -1.4602  -15.2360   19.2744 H   0  0  0  0  0  0  0  0  0  0  0  0
   -4.2389  -14.9366   15.0802 H   0  0  0  0  0  0  0  0  0  0  0  0
   -3.9187  -17.3011   15.1357 H   0  0  0  0  0  0  0  0  0  0  0  0
   -4.3826  -17.4140   16.8446 H   0  0  0  0  0  0  0  0  0  0  0  0
   -6.1385  -17.2731   14.4348 H   0  0  0  0  0  0  0  0  0  0  0  0
   -6.4690  -17.9457   16.0356 H   0  0  0  0  0  0  0  0  0  0  0  0
   -7.6710  -15.9713   16.4533 H   0  0  0  0  0  0  0  0  0  0  0  0
   -7.0258  -15.2410   14.9770 H   0  0  0  0  0  0  0  0  0  0  0  0
   -5.7807  -15.2886   17.7456 H   0  0  0  0  0  0  0  0  0  0  0  0
   -5.9452  -13.9144   16.6591 H   0  0  0  0  0  0  0  0  0  0  0  0
   -2.7756  -12.9613   17.1172 H   0  0  0  0  0  0  0  0  0  0  0  0
    5.6401  -13.1745   14.0641 H   0  0  0  0  0  0  0  0  0  0  0  0
    7.4463  -12.1191   12.2720 H   0  0  0  0  0  0  0  0  0  0  0  0
    7.9813   -9.9561   11.1501 H   0  0  0  0  0  0  0  0  0  0  0  0
    6.5446   -7.9851   11.5581 H   0  0  0  0  0  0  0  0  0  0  0  0
    4.6215   -8.1460   13.0456 H   0  0  0  0  0  0  0  0  0  0  0  0
    4.6600  -10.5734   15.3180 H   0  0  0  0  0  0  0  0  0  0  0  0
  1  2  2  0
  2  3  1  0
  3  4  1  0
  4  5  1  0
  5  6  2  0
  6  7  1  0
  7  8  1  0
  8  9  1  0
  9 10  1  0
 10 11  1  0
 11 12  1  0
  7 13  1  0
  2 14  1  0
 14 15  2  0
 15 16  1  0
 16 17  2  0
 17 18  1  0
 18 19  2  0
 19 20  1  0
 20 21  2  0
 21 22  1  0
 13  4  2  0
 22 14  1  0
 12  8  1  0
 21 16  1  0
  3 23  1  0
  5 24  1  0
  8 25  1  0
  9 26  1  0
  9 27  1  0
 10 28  1  0
 10 29  1  0
 11 30  1  0
 11 31  1  0
 12 32  1  0
 12 33  1  0
 13 34  1  0
 15 35  1  0
 17 36  1  0
 18 37  1  0
 19 38  1  0
 20 39  1  0
 22 40  1  0
M  END
>  <Energy>  (676) 
603.03645381639171

>  <compound_id>  (676) 
54267

>  <target_id>  (676) 
1

>  <reference_id>  (676) 
93

>  <inspiration_ids>  (676) 
[112, 93]

>  <energy_score>  (676) 
539.7833173819362

>  <distance_score>  (676) 
13.285550381743162

>  <path>  (676) 
/opt/xchem-fragalysis-2/maxwin/BulkDock/SCRATCH/511020/C54267-P93/C54267-P93.minimised.mol

>  <scratch_subdir>  (676) 
/opt/xchem-fragalysis-2/maxwin/BulkDock/SCRATCH/511020/C54267-P93

>  <fragmenstein_runtime>  (676) 
12.146264553070068

>  <fragmenstein_outcome>  (676) 
too moved

>  <fragmenstein_mode>  (676) 
expansion

>  <fragmenstein_error>  (676) 


$$$$
C54268-P112
     RDKit          3D

 37 40  0  0  0  0  0  0  0  0999 V2000
    4.3967  -15.8746   16.7062 O   0  0  0  0  0  0  0  0  0  0  0  0
    3.4874  -16.0533   17.4449 C   0  0  0  0  0  0  0  0  0  0  0  0
    2.5689  -17.2098   17.5689 N   0  0  0  0  0  0  0  0  0  0  0  0
    2.5654  -18.5601   16.8738 C   0  0  0  0  0  0  0  0  0  0  0  0
    2.0140  -19.7458   17.5322 C   0  0  0  0  0  0  0  0  0  0  0  0
    1.4560  -20.6569   16.7349 N   0  0  0  0  0  0  0  0  0  0  0  0
    1.5223  -20.0699   15.5283 N   0  0  0  0  0  0  0  0  0  0  0  0
    0.4012  -20.3208   14.5943 C   0  0  0  0  0  0  0  0  0  0  0  0
    0.2129  -21.7827   14.1333 C   0  0  0  0  0  0  0  0  0  0  0  0
   -1.2574  -21.8799   13.7142 C   0  0  0  0  0  0  0  0  0  0  0  0
   -1.9754  -21.1119   14.8052 C   0  0  0  0  0  0  0  0  0  0  0  0
   -1.0179  -19.9697   15.1603 C   0  0  0  0  0  0  0  0  0  0  0  0
    2.5023  -19.0143   15.5405 C   0  0  0  0  0  0  0  0  0  0  0  0
    3.2983  -14.8006   18.6464 C   0  0  0  0  0  0  0  0  0  0  0  0
    4.2037  -13.6993   19.3804 C   0  0  0  0  0  0  0  0  0  0  0  0
    3.8390  -13.0854   20.8091 C   0  0  0  0  0  0  0  0  0  0  0  0
    3.3613  -12.4221   22.4894 C   0  0  0  0  0  0  0  0  0  0  0  0
    2.8489  -13.0466   23.6099 C   0  0  0  0  0  0  0  0  0  0  0  0
    2.7705  -14.7232   23.2233 S   0  0  0  0  0  0  0  0  0  0  0  0
    3.2128  -14.2910   21.0537 C   0  0  0  0  0  0  0  0  0  0  0  0
    2.5378  -14.9736   19.8332 N   0  0  0  0  0  0  0  0  0  0  0  0
    1.8565  -16.9946   18.2453 H   0  0  0  0  0  0  0  0  0  0  0  0
    1.9086  -19.9362   18.5870 H   0  0  0  0  0  0  0  0  0  0  0  0
    0.6063  -19.6956   13.7176 H   0  0  0  0  0  0  0  0  0  0  0  0
    0.8883  -22.0343   13.3094 H   0  0  0  0  0  0  0  0  0  0  0  0
    0.4144  -22.4841   14.9521 H   0  0  0  0  0  0  0  0  0  0  0  0
   -1.4047  -21.3928   12.7433 H   0  0  0  0  0  0  0  0  0  0  0  0
   -1.5990  -22.9159   13.6376 H   0  0  0  0  0  0  0  0  0  0  0  0
   -2.1236  -21.7538   15.6816 H   0  0  0  0  0  0  0  0  0  0  0  0
   -2.9542  -20.7441   14.4848 H   0  0  0  0  0  0  0  0  0  0  0  0
   -1.3817  -19.0543   14.6911 H   0  0  0  0  0  0  0  0  0  0  0  0
   -1.0222  -19.7959   16.2414 H   0  0  0  0  0  0  0  0  0  0  0  0
    2.6949  -18.5059   14.6106 H   0  0  0  0  0  0  0  0  0  0  0  0
    5.1467  -13.3531   19.0379 H   0  0  0  0  0  0  0  0  0  0  0  0
    3.7703  -11.4148   22.7176 H   0  0  0  0  0  0  0  0  0  0  0  0
    2.6779  -12.6648   24.6077 H   0  0  0  0  0  0  0  0  0  0  0  0
    1.9538  -15.7732   19.9921 H   0  0  0  0  0  0  0  0  0  0  0  0
  1  2  2  0
  2  3  1  0
  3  4  1  0
  4  5  1  0
  5  6  2  0
  6  7  1  0
  7  8  1  0
  8  9  1  0
  9 10  1  0
 10 11  1  0
 11 12  1  0
  7 13  1  0
  2 14  1  0
 14 15  2  0
 15 16  1  0
 16 17  1  0
 17 18  2  0
 18 19  1  0
 19 20  1  0
 20 21  1  0
 13  4  2  0
 21 14  1  0
 12  8  1  0
 20 16  2  0
  3 22  1  0
  5 23  1  0
  8 24  1  0
  9 25  1  0
  9 26  1  0
 10 27  1  0
 10 28  1  0
 11 29  1  0
 11 30  1  0
 12 31  1  0
 12 32  1  0
 13 33  1  0
 15 34  1  0
 17 35  1  0
 18 36  1  0
 21 37  1  0
M  END
>  <Energy>  (677) 
346.40777315146732

>  <compound_id>  (677) 
54268

>  <target_id>  (677) 
1

>  <reference_id>  (677) 
112

>  <inspiration_ids>  (677) 
[112, 93]

>  <energy_score>  (677) 
270.8247850207655

>  <distance_score>  (677) 
15.624179268572775

>  <path>  (677) 
/opt/xchem-fragalysis-2/maxwin/BulkDock/SCRATCH/511020/C54268-P112/C54268-P112.minimised.mol

>  <scratch_subdir>  (677) 
/opt/xchem-fragalysis-2/maxwin/BulkDock/SCRATCH/511020/C54268-P112

>  <fragmenstein_runtime>  (677) 
8.0115327835083

>  <fragmenstein_outcome>  (677) 
too moved

>  <fragmenstein_mode>  (677) 
expansion

>  <fragmenstein_error>  (677) 


$$$$
C54268-P93
     RDKit          3D

 37 40  0  0  0  0  0  0  0  0999 V2000
    1.7277  -14.1040   12.9797 O   0  0  0  0  0  0  0  0  0  0  0  0
    1.0230  -13.5035   13.5336 C   0  0  0  0  0  0  0  0  0  0  0  0
   -0.4432  -13.7253   12.9436 N   0  0  0  0  0  0  0  0  0  0  0  0
   -1.0490  -14.6296   11.5529 C   0  0  0  0  0  0  0  0  0  0  0  0
   -2.4490  -15.0849   11.0410 C   0  0  0  0  0  0  0  0  0  0  0  0
   -2.5217  -16.0998   10.1912 N   0  0  0  0  0  0  0  0  0  0  0  0
   -1.3037  -16.6431   10.2860 N   0  0  0  0  0  0  0  0  0  0  0  0
   -1.1915  -18.0225    9.7799 C   0  0  0  0  0  0  0  0  0  0  0  0
   -1.5699  -19.1631   10.7541 C   0  0  0  0  0  0  0  0  0  0  0  0
   -3.0865  -19.3629   10.6554 C   0  0  0  0  0  0  0  0  0  0  0  0
   -3.4681  -18.9021    9.2560 C   0  0  0  0  0  0  0  0  0  0  0  0
   -2.1753  -18.3583    8.6225 C   0  0  0  0  0  0  0  0  0  0  0  0
   -0.3701  -15.7713   10.9555 C   0  0  0  0  0  0  0  0  0  0  0  0
    1.9941  -12.6035   15.0863 C   0  0  0  0  0  0  0  0  0  0  0  0
    3.7634  -11.7655   14.9534 C   0  0  0  0  0  0  0  0  0  0  0  0
    3.7116  -10.6355   13.7360 C   0  0  0  0  0  0  0  0  0  0  0  0
    4.4480   -9.8833   12.5906 C   0  0  0  0  0  0  0  0  0  0  0  0
    5.6972   -9.3656   12.7740 C   0  0  0  0  0  0  0  0  0  0  0  0
    6.1527  -10.7936   13.4683 S   0  0  0  0  0  0  0  0  0  0  0  0
    4.6789  -10.8212   14.5501 C   0  0  0  0  0  0  0  0  0  0  0  0
    3.5827  -11.6775   15.7182 N   0  0  0  0  0  0  0  0  0  0  0  0
   -1.0729  -13.2226   13.5537 H   0  0  0  0  0  0  0  0  0  0  0  0
   -3.4056  -14.7801   11.4682 H   0  0  0  0  0  0  0  0  0  0  0  0
   -0.1526  -18.1184    9.4450 H   0  0  0  0  0  0  0  0  0  0  0  0
   -1.0821  -20.0848   10.4077 H   0  0  0  0  0  0  0  0  0  0  0  0
   -1.2322  -19.0087   11.7777 H   0  0  0  0  0  0  0  0  0  0  0  0
   -3.6102  -18.7608   11.4049 H   0  0  0  0  0  0  0  0  0  0  0  0
   -3.3550  -20.4092   10.8293 H   0  0  0  0  0  0  0  0  0  0  0  0
   -4.2376  -18.1243    9.3067 H   0  0  0  0  0  0  0  0  0  0  0  0
   -3.8760  -19.7230    8.6571 H   0  0  0  0  0  0  0  0  0  0  0  0
   -1.7311  -19.1534    8.0090 H   0  0  0  0  0  0  0  0  0  0  0  0
   -2.3698  -17.5132    7.9538 H   0  0  0  0  0  0  0  0  0  0  0  0
    0.6360  -16.1310   11.1049 H   0  0  0  0  0  0  0  0  0  0  0  0
    4.5880  -12.6088   14.4524 H   0  0  0  0  0  0  0  0  0  0  0  0
    3.9226   -9.5715   11.6894 H   0  0  0  0  0  0  0  0  0  0  0  0
    6.2909   -8.7047   12.1581 H   0  0  0  0  0  0  0  0  0  0  0  0
    3.4456  -11.3260   16.6963 H   0  0  0  0  0  0  0  0  0  0  0  0
  1  2  2  0
  2  3  1  0
  3  4  1  0
  4  5  1  0
  5  6  2  0
  6  7  1  0
  7  8  1  0
  8  9  1  0
  9 10  1  0
 10 11  1  0
 11 12  1  0
  7 13  1  0
  2 14  1  0
 14 15  2  0
 15 16  1  0
 16 17  1  0
 17 18  2  0
 18 19  1  0
 19 20  1  0
 20 21  1  0
 13  4  2  0
 21 14  1  0
 12  8  1  0
 20 16  2  0
  3 22  1  0
  5 23  1  0
  8 24  1  0
  9 25  1  0
  9 26  1  0
 10 27  1  0
 10 28  1  0
 11 29  1  0
 11 30  1  0
 12 31  1  0
 12 32  1  0
 13 33  1  0
 15 34  1  0
 17 35  1  0
 18 36  1  0
 21 37  1  0
M  END
>  <Energy>  (678) 
951.24503887414005

>  <compound_id>  (678) 
54268

>  <target_id>  (678) 
1

>  <reference_id>  (678) 
93

>  <inspiration_ids>  (678) 
[112, 93]

>  <energy_score>  (678) 
875.6620507434296

>  <distance_score>  (678) 
13.901443229479936

>  <path>  (678) 
/opt/xchem-fragalysis-2/maxwin/BulkDock/SCRATCH/511020/C54268-P93/C54268-P93.minimised.mol

>  <scratch_subdir>  (678) 
/opt/xchem-fragalysis-2/maxwin/BulkDock/SCRATCH/511020/C54268-P93

>  <fragmenstein_runtime>  (678) 
12.484797239303589

>  <fragmenstein_outcome>  (678) 
too moved

>  <fragmenstein_mode>  (678) 
expansion

>  <fragmenstein_error>  (678) 


$$$$
C54269-P112
     RDKit          3D

 40 43  0  0  0  0  0  0  0  0999 V2000
    8.5056  -18.0221   16.9817 O   0  0  0  0  0  0  0  0  0  0  0  0
    8.2491  -17.5110   15.9211 C   0  0  0  0  0  0  0  0  0  0  0  0
    7.1127  -17.7534   14.9706 N   0  0  0  0  0  0  0  0  0  0  0  0
    5.9513  -18.5926   15.0865 C   0  0  0  0  0  0  0  0  0  0  0  0
    5.5191  -19.5017   16.0929 C   0  0  0  0  0  0  0  0  0  0  0  0
    4.3497  -20.1192   15.8376 N   0  0  0  0  0  0  0  0  0  0  0  0
    3.9830  -19.6666   14.6127 N   0  0  0  0  0  0  0  0  0  0  0  0
    2.6758  -20.0758   14.0686 C   0  0  0  0  0  0  0  0  0  0  0  0
    2.2768  -21.5578   14.3238 C   0  0  0  0  0  0  0  0  0  0  0  0
    1.2089  -21.9359   13.2766 C   0  0  0  0  0  0  0  0  0  0  0  0
    1.1044  -20.7324   12.3504 C   0  0  0  0  0  0  0  0  0  0  0  0
    2.4260  -19.9844   12.5561 C   0  0  0  0  0  0  0  0  0  0  0  0
    4.8980  -18.7120   14.1605 C   0  0  0  0  0  0  0  0  0  0  0  0
    9.3410  -16.4517   15.4307 C   0  0  0  0  0  0  0  0  0  0  0  0
    9.9339  -16.6071   14.1635 C   0  0  0  0  0  0  0  0  0  0  0  0
   10.8348  -15.6713   13.6109 C   0  0  0  0  0  0  0  0  0  0  0  0
   11.1902  -14.5061   14.2884 C   0  0  0  0  0  0  0  0  0  0  0  0
   10.7554  -14.3567   15.6114 C   0  0  0  0  0  0  0  0  0  0  0  0
   11.0130  -13.3427   16.5826 C   0  0  0  0  0  0  0  0  0  0  0  0
   10.4553  -13.7707   17.7576 C   0  0  0  0  0  0  0  0  0  0  0  0
    9.8834  -15.0004   17.5250 N   0  0  0  0  0  0  0  0  0  0  0  0
    9.9176  -15.3472   16.1804 C   0  0  0  0  0  0  0  0  0  0  0  0
    7.1645  -17.0861   14.2131 H   0  0  0  0  0  0  0  0  0  0  0  0
    6.0289  -19.7297   17.0205 H   0  0  0  0  0  0  0  0  0  0  0  0
    1.9832  -19.3979   14.5700 H   0  0  0  0  0  0  0  0  0  0  0  0
    3.1509  -22.2085   14.1882 H   0  0  0  0  0  0  0  0  0  0  0  0
    1.9289  -21.7217   15.3485 H   0  0  0  0  0  0  0  0  0  0  0  0
    1.5449  -22.8180   12.7190 H   0  0  0  0  0  0  0  0  0  0  0  0
    0.2460  -22.1923   13.7270 H   0  0  0  0  0  0  0  0  0  0  0  0
    0.9553  -21.0246   11.3069 H   0  0  0  0  0  0  0  0  0  0  0  0
    0.2668  -20.0948   12.6443 H   0  0  0  0  0  0  0  0  0  0  0  0
    3.2342  -20.4827   12.0057 H   0  0  0  0  0  0  0  0  0  0  0  0
    2.3679  -18.9595   12.1879 H   0  0  0  0  0  0  0  0  0  0  0  0
    4.7104  -18.2083   13.2247 H   0  0  0  0  0  0  0  0  0  0  0  0
    9.6747  -17.4860   13.5726 H   0  0  0  0  0  0  0  0  0  0  0  0
   11.2409  -15.8516   12.6168 H   0  0  0  0  0  0  0  0  0  0  0  0
   11.8543  -13.7792   13.8315 H   0  0  0  0  0  0  0  0  0  0  0  0
   11.5840  -12.4357   16.4393 H   0  0  0  0  0  0  0  0  0  0  0  0
   10.4426  -13.3404   18.7498 H   0  0  0  0  0  0  0  0  0  0  0  0
    9.4735  -15.5884   18.2397 H   0  0  0  0  0  0  0  0  0  0  0  0
  1  2  2  0
  2  3  1  0
  3  4  1  0
  4  5  1  0
  5  6  2  0
  6  7  1  0
  7  8  1  0
  8  9  1  0
  9 10  1  0
 10 11  1  0
 11 12  1  0
  7 13  1  0
  2 14  1  0
 14 15  2  0
 15 16  1  0
 16 17  2  0
 17 18  1  0
 18 19  1  0
 19 20  2  0
 20 21  1  0
 21 22  1  0
 13  4  2  0
 22 14  1  0
 12  8  1  0
 22 18  2  0
  3 23  1  0
  5 24  1  0
  8 25  1  0
  9 26  1  0
  9 27  1  0
 10 28  1  0
 10 29  1  0
 11 30  1  0
 11 31  1  0
 12 32  1  0
 12 33  1  0
 13 34  1  0
 15 35  1  0
 16 36  1  0
 17 37  1  0
 19 38  1  0
 20 39  1  0
 21 40  1  0
M  END
>  <Energy>  (679) 
64.508944464638276

>  <compound_id>  (679) 
54269

>  <target_id>  (679) 
1

>  <reference_id>  (679) 
112

>  <inspiration_ids>  (679) 
[112, 93]

>  <energy_score>  (679) 
7.8492479450204655

>  <distance_score>  (679) 
15.503805364951862

>  <path>  (679) 
/opt/xchem-fragalysis-2/maxwin/BulkDock/SCRATCH/511020/C54269-P112/C54269-P112.minimised.mol

>  <scratch_subdir>  (679) 
/opt/xchem-fragalysis-2/maxwin/BulkDock/SCRATCH/511020/C54269-P112

>  <fragmenstein_runtime>  (679) 
12.316392183303833

>  <fragmenstein_outcome>  (679) 
too moved

>  <fragmenstein_mode>  (679) 
expansion

>  <fragmenstein_error>  (679) 


$$$$
C54269-P93
     RDKit          3D

 40 43  0  0  0  0  0  0  0  0999 V2000
   -2.4923   -7.2588   16.6694 O   0  0  0  0  0  0  0  0  0  0  0  0
   -1.7700   -7.9237   17.3645 C   0  0  0  0  0  0  0  0  0  0  0  0
   -2.0673   -9.0849   18.2113 N   0  0  0  0  0  0  0  0  0  0  0  0
   -3.2776   -9.8297   18.3916 C   0  0  0  0  0  0  0  0  0  0  0  0
   -3.5884  -10.7895   19.3988 C   0  0  0  0  0  0  0  0  0  0  0  0
   -4.8323  -11.2996   19.3345 N   0  0  0  0  0  0  0  0  0  0  0  0
   -5.3372  -10.8044   18.1849 N   0  0  0  0  0  0  0  0  0  0  0  0
   -6.5616  -11.3749   17.5967 C   0  0  0  0  0  0  0  0  0  0  0  0
   -7.9109  -10.8155   18.0579 C   0  0  0  0  0  0  0  0  0  0  0  0
   -8.9632  -11.8018   17.5114 C   0  0  0  0  0  0  0  0  0  0  0  0
   -8.2496  -13.1379   17.3506 C   0  0  0  0  0  0  0  0  0  0  0  0
   -6.8284  -12.8763   17.8445 C   0  0  0  0  0  0  0  0  0  0  0  0
   -4.4618   -9.8472   17.6481 C   0  0  0  0  0  0  0  0  0  0  0  0
   -0.2504   -7.4149   17.2210 C   0  0  0  0  0  0  0  0  0  0  0  0
    0.0085   -6.7257   15.9863 C   0  0  0  0  0  0  0  0  0  0  0  0
    1.2117   -6.1023   15.6245 C   0  0  0  0  0  0  0  0  0  0  0  0
    2.2795   -6.1046   16.4991 C   0  0  0  0  0  0  0  0  0  0  0  0
    2.1363   -6.7633   17.7302 C   0  0  0  0  0  0  0  0  0  0  0  0
    3.0671   -6.9032   18.8001 C   0  0  0  0  0  0  0  0  0  0  0  0
    2.4417   -7.6390   19.7663 C   0  0  0  0  0  0  0  0  0  0  0  0
    1.1712   -7.9423   19.3241 N   0  0  0  0  0  0  0  0  0  0  0  0
    0.9095   -7.4107   18.0737 C   0  0  0  0  0  0  0  0  0  0  0  0
   -1.2264   -9.3464   18.7258 H   0  0  0  0  0  0  0  0  0  0  0  0
   -2.9514  -11.1069   20.2136 H   0  0  0  0  0  0  0  0  0  0  0  0
   -6.4790  -11.1781   16.5239 H   0  0  0  0  0  0  0  0  0  0  0  0
   -7.9600  -10.7832   19.1536 H   0  0  0  0  0  0  0  0  0  0  0  0
   -8.0827   -9.7978   17.6927 H   0  0  0  0  0  0  0  0  0  0  0  0
   -9.3356  -11.4571   16.5400 H   0  0  0  0  0  0  0  0  0  0  0  0
   -9.8209  -11.8733   18.1877 H   0  0  0  0  0  0  0  0  0  0  0  0
   -8.7329  -13.9368   17.9212 H   0  0  0  0  0  0  0  0  0  0  0  0
   -8.2433  -13.4366   16.2965 H   0  0  0  0  0  0  0  0  0  0  0  0
   -6.1158  -13.5078   17.3327 H   0  0  0  0  0  0  0  0  0  0  0  0
   -6.7702  -13.1092   18.9152 H   0  0  0  0  0  0  0  0  0  0  0  0
   -4.7453   -9.2978   16.7606 H   0  0  0  0  0  0  0  0  0  0  0  0
   -0.7997   -6.6605   15.2517 H   0  0  0  0  0  0  0  0  0  0  0  0
    1.2898   -5.6016   14.6623 H   0  0  0  0  0  0  0  0  0  0  0  0
    3.2024   -5.5982   16.2440 H   0  0  0  0  0  0  0  0  0  0  0  0
    4.0718   -6.5055   18.8430 H   0  0  0  0  0  0  0  0  0  0  0  0
    2.7716   -7.9956   20.7325 H   0  0  0  0  0  0  0  0  0  0  0  0
    0.5483   -8.5742   19.8129 H   0  0  0  0  0  0  0  0  0  0  0  0
  1  2  2  0
  2  3  1  0
  3  4  1  0
  4  5  1  0
  5  6  2  0
  6  7  1  0
  7  8  1  0
  8  9  1  0
  9 10  1  0
 10 11  1  0
 11 12  1  0
  7 13  1  0
  2 14  1  0
 14 15  2  0
 15 16  1  0
 16 17  2  0
 17 18  1  0
 18 19  1  0
 19 20  2  0
 20 21  1  0
 21 22  1  0
 13  4  2  0
 22 14  1  0
 12  8  1  0
 22 18  2  0
  3 23  1  0
  5 24  1  0
  8 25  1  0
  9 26  1  0
  9 27  1  0
 10 28  1  0
 10 29  1  0
 11 30  1  0
 11 31  1  0
 12 32  1  0
 12 33  1  0
 13 34  1  0
 15 35  1  0
 16 36  1  0
 17 37  1  0
 19 38  1  0
 20 39  1  0
 21 40  1  0
M  END
>  <Energy>  (680) 
74.865393160450239

>  <compound_id>  (680) 
54269

>  <target_id>  (680) 
1

>  <reference_id>  (680) 
93

>  <inspiration_ids>  (680) 
[112, 93]

>  <energy_score>  (680) 
18.20569664083075

>  <distance_score>  (680) 
14.866825927132997

>  <path>  (680) 
/opt/xchem-fragalysis-2/maxwin/BulkDock/SCRATCH/511020/C54269-P93/C54269-P93.minimised.mol

>  <scratch_subdir>  (680) 
/opt/xchem-fragalysis-2/maxwin/BulkDock/SCRATCH/511020/C54269-P93

>  <fragmenstein_runtime>  (680) 
13.119400024414062

>  <fragmenstein_outcome>  (680) 
too moved

>  <fragmenstein_mode>  (680) 
expansion

>  <fragmenstein_error>  (680) 


$$$$
C33772-P112
     RDKit          3D

 41 45  0  0  0  0  0  0  0  0999 V2000
   11.7486   -4.7169   16.0163 C   0  0  0  0  0  0  0  0  0  0  0  0
   11.0515   -5.4943   15.0951 C   0  0  0  0  0  0  0  0  0  0  0  0
    9.8245   -6.8874   15.0641 C   0  0  0  0  0  0  0  0  0  0  0  0
    9.5609   -7.5643   16.0839 C   0  0  0  0  0  0  0  0  0  0  0  0
    8.9684   -9.3723   17.0922 C   0  0  0  0  0  0  0  0  0  0  0  0
    7.7092  -10.0141   18.4214 C   0  0  0  0  0  0  0  0  0  0  0  0
    6.6032   -9.3319   18.8882 N   0  0  0  0  0  0  0  0  0  0  0  0
    6.1071  -10.0309   19.9929 O   0  0  0  0  0  0  0  0  0  0  0  0
    6.8066  -11.1800   20.3009 C   0  0  0  0  0  0  0  0  0  0  0  0
    6.0470  -12.5776   21.3352 C   0  0  0  0  0  0  0  0  0  0  0  0
    6.5512  -13.7145   22.0447 C   0  0  0  0  0  0  0  0  0  0  0  0
    5.6144  -14.5017   22.6723 N   0  0  0  0  0  0  0  0  0  0  0  0
    4.4291  -13.8985   22.4371 N   0  0  0  0  0  0  0  0  0  0  0  0
    3.0973  -14.4603   22.8548 C   0  0  0  0  0  0  0  0  0  0  0  0
    2.3727  -15.6511   22.0923 C   0  0  0  0  0  0  0  0  0  0  0  0
    1.1026  -15.9561   22.8804 C   0  0  0  0  0  0  0  0  0  0  0  0
    1.4943  -15.6246   24.3137 C   0  0  0  0  0  0  0  0  0  0  0  0
    2.9311  -15.0351   24.2704 C   0  0  0  0  0  0  0  0  0  0  0  0
    4.7013  -12.9206   21.4667 C   0  0  0  0  0  0  0  0  0  0  0  0
    7.9916  -11.0460   19.6762 N   0  0  0  0  0  0  0  0  0  0  0  0
    9.0187   -9.0412   18.8924 C   0  0  0  0  0  0  0  0  0  0  0  0
    9.6231   -7.5643   19.1727 N   0  0  0  0  0  0  0  0  0  0  0  0
   10.3420   -6.2904   17.5533 C   0  0  0  0  0  0  0  0  0  0  0  0
   11.2785   -4.9138   17.2606 C   0  0  0  0  0  0  0  0  0  0  0  0
   12.4268   -3.9230   15.7468 H   0  0  0  0  0  0  0  0  0  0  0  0
   11.1442   -4.9232   14.1584 H   0  0  0  0  0  0  0  0  0  0  0  0
    8.7918   -6.7776   14.6352 H   0  0  0  0  0  0  0  0  0  0  0  0
    7.5908  -14.0015   22.1486 H   0  0  0  0  0  0  0  0  0  0  0  0
    2.4791  -13.5572   22.8687 H   0  0  0  0  0  0  0  0  0  0  0  0
    2.9935  -16.5570   22.1406 H   0  0  0  0  0  0  0  0  0  0  0  0
    2.1450  -15.4614   21.0436 H   0  0  0  0  0  0  0  0  0  0  0  0
    0.2717  -15.3184   22.5660 H   0  0  0  0  0  0  0  0  0  0  0  0
    0.7915  -16.9986   22.7649 H   0  0  0  0  0  0  0  0  0  0  0  0
    1.4626  -16.5080   24.9597 H   0  0  0  0  0  0  0  0  0  0  0  0
    0.7989  -14.8874   24.7311 H   0  0  0  0  0  0  0  0  0  0  0  0
    3.6666  -15.8285   24.4525 H   0  0  0  0  0  0  0  0  0  0  0  0
    3.0734  -14.2737   25.0444 H   0  0  0  0  0  0  0  0  0  0  0  0
    3.9642  -12.8211   20.7289 H   0  0  0  0  0  0  0  0  0  0  0  0
    9.5295   -9.6839   19.6282 H   0  0  0  0  0  0  0  0  0  0  0  0
    9.2648   -7.0449   20.0217 H   0  0  0  0  0  0  0  0  0  0  0  0
   11.7104   -4.4105   18.1222 H   0  0  0  0  0  0  0  0  0  0  0  0
  1  2  2  0
  2  3  1  0
  3  4  2  0
  4  5  1  0
  5  6  1  0
  6  7  2  0
  7  8  1  0
  8  9  1  0
  9 10  1  0
 10 11  1  0
 11 12  2  0
 12 13  1  0
 13 14  1  0
 14 15  1  0
 15 16  1  0
 16 17  1  0
 17 18  1  0
 13 19  1  0
  9 20  2  0
  5 21  2  0
 21 22  1  0
 22 23  1  0
 23 24  2  0
 24  1  1  0
 23  4  1  0
 20  6  1  0
 19 10  2  0
 18 14  1  0
  1 25  1  0
  2 26  1  0
  3 27  1  0
 11 28  1  0
 14 29  1  0
 15 30  1  0
 15 31  1  0
 16 32  1  0
 16 33  1  0
 17 34  1  0
 17 35  1  0
 18 36  1  0
 18 37  1  0
 19 38  1  0
 21 39  1  0
 22 40  1  0
 24 41  1  0
M  END
>  <Energy>  (681) 
1219.9970421882397

>  <compound_id>  (681) 
33772

>  <target_id>  (681) 
1

>  <reference_id>  (681) 
112

>  <inspiration_ids>  (681) 
[112, 93]

>  <energy_score>  (681) 
1130.2895524433739

>  <distance_score>  (681) 
16.767970346088386

>  <path>  (681) 
/opt/xchem-fragalysis-2/maxwin/BulkDock/SCRATCH/511020/C33772-P112/C33772-P112.minimised.mol

>  <scratch_subdir>  (681) 
/opt/xchem-fragalysis-2/maxwin/BulkDock/SCRATCH/511020/C33772-P112

>  <fragmenstein_runtime>  (681) 
8.596672296524048

>  <fragmenstein_outcome>  (681) 
too moved

>  <fragmenstein_mode>  (681) 
expansion

>  <fragmenstein_error>  (681) 


$$$$
C33772-P93
     RDKit          3D

 41 45  0  0  0  0  0  0  0  0999 V2000
    2.9628   -6.2813   18.6506 C   0  0  0  0  0  0  0  0  0  0  0  0
    2.3459   -6.9520   19.6991 C   0  0  0  0  0  0  0  0  0  0  0  0
    1.0810   -7.5641   19.5381 C   0  0  0  0  0  0  0  0  0  0  0  0
    0.3911   -7.5152   18.3009 C   0  0  0  0  0  0  0  0  0  0  0  0
   -0.8710   -8.0554   17.7433 C   0  0  0  0  0  0  0  0  0  0  0  0
   -1.9702   -9.0069   18.3237 C   0  0  0  0  0  0  0  0  0  0  0  0
   -2.7135   -8.7546   19.4106 N   0  0  0  0  0  0  0  0  0  0  0  0
   -3.6638   -9.8040   19.4480 O   0  0  0  0  0  0  0  0  0  0  0  0
   -3.4269  -10.6753   18.3913 C   0  0  0  0  0  0  0  0  0  0  0  0
   -4.4072  -12.1152   18.1626 C   0  0  0  0  0  0  0  0  0  0  0  0
   -5.6369  -12.3819   18.8323 C   0  0  0  0  0  0  0  0  0  0  0  0
   -6.2627  -13.5026   18.4333 N   0  0  0  0  0  0  0  0  0  0  0  0
   -5.4391  -14.0269   17.5015 N   0  0  0  0  0  0  0  0  0  0  0  0
   -5.8280  -15.2440   16.7699 C   0  0  0  0  0  0  0  0  0  0  0  0
   -6.9285  -15.0280   15.7096 C   0  0  0  0  0  0  0  0  0  0  0  0
   -7.5887  -16.3941   15.5458 C   0  0  0  0  0  0  0  0  0  0  0  0
   -7.6732  -16.8961   16.9747 C   0  0  0  0  0  0  0  0  0  0  0  0
   -6.3695  -16.4181   17.6297 C   0  0  0  0  0  0  0  0  0  0  0  0
   -4.2752  -13.2615   17.3784 C   0  0  0  0  0  0  0  0  0  0  0  0
   -2.4341  -10.1830   17.6403 N   0  0  0  0  0  0  0  0  0  0  0  0
   -0.8934   -7.5749   16.4417 C   0  0  0  0  0  0  0  0  0  0  0  0
    0.2428   -6.8492   16.1801 N   0  0  0  0  0  0  0  0  0  0  0  0
    1.0601   -6.8098   17.2799 C   0  0  0  0  0  0  0  0  0  0  0  0
    2.3234   -6.1971   17.4185 C   0  0  0  0  0  0  0  0  0  0  0  0
    3.9342   -5.8172   18.7946 H   0  0  0  0  0  0  0  0  0  0  0  0
    2.8386   -7.0099   20.6664 H   0  0  0  0  0  0  0  0  0  0  0  0
    0.6289   -8.0967   20.3716 H   0  0  0  0  0  0  0  0  0  0  0  0
   -6.1208  -11.7661   19.5802 H   0  0  0  0  0  0  0  0  0  0  0  0
   -4.9137  -15.5849   16.2655 H   0  0  0  0  0  0  0  0  0  0  0  0
   -6.5136  -14.6583   14.7663 H   0  0  0  0  0  0  0  0  0  0  0  0
   -7.6672  -14.2946   16.0559 H   0  0  0  0  0  0  0  0  0  0  0  0
   -8.5688  -16.3280   15.0657 H   0  0  0  0  0  0  0  0  0  0  0  0
   -6.9475  -17.0508   14.9469 H   0  0  0  0  0  0  0  0  0  0  0  0
   -8.5287  -16.4356   17.4831 H   0  0  0  0  0  0  0  0  0  0  0  0
   -7.7905  -17.9819   17.0331 H   0  0  0  0  0  0  0  0  0  0  0  0
   -6.5366  -16.1518   18.6783 H   0  0  0  0  0  0  0  0  0  0  0  0
   -5.6346  -17.2325   17.6220 H   0  0  0  0  0  0  0  0  0  0  0  0
   -3.4715  -13.6234   16.7586 H   0  0  0  0  0  0  0  0  0  0  0  0
   -1.6338   -7.7085   15.6642 H   0  0  0  0  0  0  0  0  0  0  0  0
    0.4566   -6.4113   15.2939 H   0  0  0  0  0  0  0  0  0  0  0  0
    2.7842   -5.6692   16.5894 H   0  0  0  0  0  0  0  0  0  0  0  0
  1  2  2  0
  2  3  1  0
  3  4  2  0
  4  5  1  0
  5  6  1  0
  6  7  2  0
  7  8  1  0
  8  9  1  0
  9 10  1  0
 10 11  1  0
 11 12  2  0
 12 13  1  0
 13 14  1  0
 14 15  1  0
 15 16  1  0
 16 17  1  0
 17 18  1  0
 13 19  1  0
  9 20  2  0
  5 21  2  0
 21 22  1  0
 22 23  1  0
 23 24  2  0
 24  1  1  0
 23  4  1  0
 20  6  1  0
 19 10  2  0
 18 14  1  0
  1 25  1  0
  2 26  1  0
  3 27  1  0
 11 28  1  0
 14 29  1  0
 15 30  1  0
 15 31  1  0
 16 32  1  0
 16 33  1  0
 17 34  1  0
 17 35  1  0
 18 36  1  0
 18 37  1  0
 19 38  1  0
 21 39  1  0
 22 40  1  0
 24 41  1  0
M  END
>  <Energy>  (682) 
86.664528701277547

>  <compound_id>  (682) 
33772

>  <target_id>  (682) 
1

>  <reference_id>  (682) 
93

>  <inspiration_ids>  (682) 
[112, 93]

>  <energy_score>  (682) 
-3.042961043584455

>  <distance_score>  (682) 
13.879297423996352

>  <path>  (682) 
/opt/xchem-fragalysis-2/maxwin/BulkDock/SCRATCH/511020/C33772-P93/C33772-P93.minimised.mol

>  <scratch_subdir>  (682) 
/opt/xchem-fragalysis-2/maxwin/BulkDock/SCRATCH/511020/C33772-P93

>  <fragmenstein_runtime>  (682) 
15.744304180145264

>  <fragmenstein_outcome>  (682) 
too moved

>  <fragmenstein_mode>  (682) 
expansion

>  <fragmenstein_error>  (682) 


$$$$
C33773-P112
     RDKit          3D

 43 46  0  0  0  0  0  0  0  0999 V2000
    1.4619  -11.6552   13.7428 O   0  0  0  0  0  0  0  0  0  0  0  0
    1.9271  -10.9023   12.8775 C   0  0  0  0  0  0  0  0  0  0  0  0
    3.6870  -10.0086   13.5837 C   0  0  0  0  0  0  0  0  0  0  0  0
    3.9752   -8.1102   13.8440 C   0  0  0  0  0  0  0  0  0  0  0  0
    3.4858   -7.0109   14.6643 C   0  0  0  0  0  0  0  0  0  0  0  0
    3.0614   -6.9315   15.9384 N   0  0  0  0  0  0  0  0  0  0  0  0
    4.2314   -6.3056   15.7281 C   0  0  0  0  0  0  0  0  0  0  0  0
    4.8940   -5.8336   16.8634 C   0  0  0  0  0  0  0  0  0  0  0  0
    6.1973   -5.9794   16.7004 C   0  0  0  0  0  0  0  0  0  0  0  0
    6.7527   -6.4819   15.4722 C   0  0  0  0  0  0  0  0  0  0  0  0
    6.2765   -7.3192   14.2940 C   0  0  0  0  0  0  0  0  0  0  0  0
    4.8959   -7.2005   14.1220 C   0  0  0  0  0  0  0  0  0  0  0  0
    1.4079  -10.7087   11.4244 N   0  0  0  0  0  0  0  0  0  0  0  0
    0.3483  -11.3970   10.6743 C   0  0  0  0  0  0  0  0  0  0  0  0
    0.3611  -11.5442    9.2905 C   0  0  0  0  0  0  0  0  0  0  0  0
   -0.6457  -12.4419    8.9101 C   0  0  0  0  0  0  0  0  0  0  0  0
   -1.3343  -12.8789    9.9417 N   0  0  0  0  0  0  0  0  0  0  0  0
   -0.7642  -12.2825   11.0340 N   0  0  0  0  0  0  0  0  0  0  0  0
   -1.4865  -12.6696   12.2620 C   0  0  0  0  0  0  0  0  0  0  0  0
   -1.6061  -14.2165   12.4559 C   0  0  0  0  0  0  0  0  0  0  0  0
   -3.0480  -14.6119   12.1168 C   0  0  0  0  0  0  0  0  0  0  0  0
   -3.8444  -13.4364   12.6404 C   0  0  0  0  0  0  0  0  0  0  0  0
   -2.9831  -12.2157   12.2839 C   0  0  0  0  0  0  0  0  0  0  0  0
    3.7636  -10.4335   14.5905 H   0  0  0  0  0  0  0  0  0  0  0  0
    4.6726  -10.3682   13.2717 H   0  0  0  0  0  0  0  0  0  0  0  0
    3.2990   -5.8090   14.3425 H   0  0  0  0  0  0  0  0  0  0  0  0
    2.7749   -7.5447   16.6995 H   0  0  0  0  0  0  0  0  0  0  0  0
    4.4015   -5.5543   17.7835 H   0  0  0  0  0  0  0  0  0  0  0  0
    6.7491   -5.7096   17.5726 H   0  0  0  0  0  0  0  0  0  0  0  0
    7.7763   -6.2210   15.2802 H   0  0  0  0  0  0  0  0  0  0  0  0
    6.8628   -7.6252   13.4600 H   0  0  0  0  0  0  0  0  0  0  0  0
    2.0340  -10.1027   10.9434 H   0  0  0  0  0  0  0  0  0  0  0  0
    1.0858  -11.1348    8.6086 H   0  0  0  0  0  0  0  0  0  0  0  0
   -0.8889  -12.7993    7.9180 H   0  0  0  0  0  0  0  0  0  0  0  0
   -0.9497  -12.1915   13.0677 H   0  0  0  0  0  0  0  0  0  0  0  0
   -0.8857  -14.7808   11.8562 H   0  0  0  0  0  0  0  0  0  0  0  0
   -1.4252  -14.4553   13.5100 H   0  0  0  0  0  0  0  0  0  0  0  0
   -3.1746  -14.7116   11.0333 H   0  0  0  0  0  0  0  0  0  0  0  0
   -3.3378  -15.5567   12.5852 H   0  0  0  0  0  0  0  0  0  0  0  0
   -3.9514  -13.5069   13.7293 H   0  0  0  0  0  0  0  0  0  0  0  0
   -4.8451  -13.3773   12.2029 H   0  0  0  0  0  0  0  0  0  0  0  0
   -3.1307  -11.4184   13.0211 H   0  0  0  0  0  0  0  0  0  0  0  0
   -3.2969  -11.8097   11.3152 H   0  0  0  0  0  0  0  0  0  0  0  0
  1  2  2  0
  2  3  1  0
  3  4  1  0
  4  5  2  0
  5  6  1  0
  6  7  1  0
  7  8  2  0
  8  9  1  0
  9 10  2  0
 10 11  1  0
 11 12  2  0
  2 13  1  0
 13 14  1  0
 14 15  2  0
 15 16  1  0
 16 17  2  0
 17 18  1  0
 18 19  1  0
 19 20  1  0
 20 21  1  0
 21 22  1  0
 22 23  1  0
 12  4  1  0
 18 14  1  0
 23 19  1  0
 12  7  1  0
  3 24  1  0
  3 25  1  0
  5 26  1  0
  6 27  1  0
  8 28  1  0
  9 29  1  0
 10 30  1  0
 11 31  1  0
 13 32  1  0
 15 33  1  0
 16 34  1  0
 19 35  1  0
 20 36  1  0
 20 37  1  0
 21 38  1  0
 21 39  1  0
 22 40  1  0
 22 41  1  0
 23 42  1  0
 23 43  1  0
M  END
>  <Energy>  (683) 
613.13706919116362

>  <compound_id>  (683) 
33773

>  <target_id>  (683) 
1

>  <reference_id>  (683) 
112

>  <inspiration_ids>  (683) 
[112, 93]

>  <energy_score>  (683) 
499.5272607090298

>  <distance_score>  (683) 
14.86796201365544

>  <path>  (683) 
/opt/xchem-fragalysis-2/maxwin/BulkDock/SCRATCH/511020/C33773-P112/C33773-P112.minimised.mol

>  <scratch_subdir>  (683) 
/opt/xchem-fragalysis-2/maxwin/BulkDock/SCRATCH/511020/C33773-P112

>  <fragmenstein_runtime>  (683) 
13.74897813796997

>  <fragmenstein_outcome>  (683) 
too moved

>  <fragmenstein_mode>  (683) 
expansion

>  <fragmenstein_error>  (683) 


$$$$
C33773-P93
     RDKit          3D

 43 46  0  0  0  0  0  0  0  0999 V2000
    1.5879  -13.0414   15.9612 O   0  0  0  0  0  0  0  0  0  0  0  0
    1.9757  -12.4645   15.0404 C   0  0  0  0  0  0  0  0  0  0  0  0
    3.9286  -11.1940   14.7620 C   0  0  0  0  0  0  0  0  0  0  0  0
    5.7134   -9.9075   14.1609 C   0  0  0  0  0  0  0  0  0  0  0  0
    7.5534  -10.3488   14.4199 C   0  0  0  0  0  0  0  0  0  0  0  0
    8.9562   -9.5731   15.4091 N   0  0  0  0  0  0  0  0  0  0  0  0
    9.0927   -7.7381   14.7965 C   0  0  0  0  0  0  0  0  0  0  0  0
   10.6047   -6.5946   15.1160 C   0  0  0  0  0  0  0  0  0  0  0  0
   10.3803   -5.0034   14.5972 C   0  0  0  0  0  0  0  0  0  0  0  0
    8.6926   -5.1178   14.6107 C   0  0  0  0  0  0  0  0  0  0  0  0
    7.5001   -6.4933   15.3315 C   0  0  0  0  0  0  0  0  0  0  0  0
    7.0693   -8.1082   14.5109 C   0  0  0  0  0  0  0  0  0  0  0  0
    0.7953  -12.4772   13.6785 N   0  0  0  0  0  0  0  0  0  0  0  0
   -0.4939  -13.1477   13.4850 C   0  0  0  0  0  0  0  0  0  0  0  0
   -1.1402  -12.9192   12.2623 C   0  0  0  0  0  0  0  0  0  0  0  0
   -2.3424  -13.6224   12.2367 C   0  0  0  0  0  0  0  0  0  0  0  0
   -2.5294  -14.2808   13.3598 N   0  0  0  0  0  0  0  0  0  0  0  0
   -1.3806  -14.0983   14.0920 N   0  0  0  0  0  0  0  0  0  0  0  0
   -1.3456  -14.9940   15.2530 C   0  0  0  0  0  0  0  0  0  0  0  0
   -2.6482  -14.9832   16.1038 C   0  0  0  0  0  0  0  0  0  0  0  0
   -3.5917  -16.0719   15.5623 C   0  0  0  0  0  0  0  0  0  0  0  0
   -2.7283  -17.0029   14.7243 C   0  0  0  0  0  0  0  0  0  0  0  0
   -1.2848  -16.4941   14.8693 C   0  0  0  0  0  0  0  0  0  0  0  0
    4.6235  -12.0190   14.5546 H   0  0  0  0  0  0  0  0  0  0  0  0
    3.9257  -10.9800   15.8270 H   0  0  0  0  0  0  0  0  0  0  0  0
    8.2683  -11.1268   14.1830 H   0  0  0  0  0  0  0  0  0  0  0  0
    9.8319  -10.0322   15.2759 H   0  0  0  0  0  0  0  0  0  0  0  0
   11.4607   -6.7286   15.8065 H   0  0  0  0  0  0  0  0  0  0  0  0
   10.9362   -4.1181   14.8747 H   0  0  0  0  0  0  0  0  0  0  0  0
    8.5469   -4.0370   15.0533 H   0  0  0  0  0  0  0  0  0  0  0  0
    6.6622   -6.1611   15.9677 H   0  0  0  0  0  0  0  0  0  0  0  0
    1.1633  -11.8801   12.9514 H   0  0  0  0  0  0  0  0  0  0  0  0
   -0.7652  -12.2839   11.4718 H   0  0  0  0  0  0  0  0  0  0  0  0
   -3.0937  -13.6624   11.4595 H   0  0  0  0  0  0  0  0  0  0  0  0
   -0.4908  -14.6831   15.8568 H   0  0  0  0  0  0  0  0  0  0  0  0
   -3.1329  -14.0014   16.1271 H   0  0  0  0  0  0  0  0  0  0  0  0
   -2.3869  -15.2389   17.1389 H   0  0  0  0  0  0  0  0  0  0  0  0
   -4.3865  -15.6310   14.9508 H   0  0  0  0  0  0  0  0  0  0  0  0
   -4.0776  -16.6060   16.3856 H   0  0  0  0  0  0  0  0  0  0  0  0
   -3.0423  -16.9711   13.6750 H   0  0  0  0  0  0  0  0  0  0  0  0
   -2.8141  -18.0437   15.0532 H   0  0  0  0  0  0  0  0  0  0  0  0
   -0.7021  -16.6780   13.9607 H   0  0  0  0  0  0  0  0  0  0  0  0
   -0.8020  -17.0448   15.6867 H   0  0  0  0  0  0  0  0  0  0  0  0
  1  2  2  0
  2  3  1  0
  3  4  1  0
  4  5  2  0
  5  6  1  0
  6  7  1  0
  7  8  2  0
  8  9  1  0
  9 10  2  0
 10 11  1  0
 11 12  2  0
  2 13  1  0
 13 14  1  0
 14 15  2  0
 15 16  1  0
 16 17  2  0
 17 18  1  0
 18 19  1  0
 19 20  1  0
 20 21  1  0
 21 22  1  0
 22 23  1  0
 12  4  1  0
 18 14  1  0
 23 19  1  0
 12  7  1  0
  3 24  1  0
  3 25  1  0
  5 26  1  0
  6 27  1  0
  8 28  1  0
  9 29  1  0
 10 30  1  0
 11 31  1  0
 13 32  1  0
 15 33  1  0
 16 34  1  0
 19 35  1  0
 20 36  1  0
 20 37  1  0
 21 38  1  0
 21 39  1  0
 22 40  1  0
 22 41  1  0
 23 42  1  0
 23 43  1  0
M  END
>  <Energy>  (684) 
1894.7162609328934

>  <compound_id>  (684) 
33773

>  <target_id>  (684) 
1

>  <reference_id>  (684) 
93

>  <inspiration_ids>  (684) 
[112, 93]

>  <energy_score>  (684) 
1781.106452450778

>  <distance_score>  (684) 
13.224183762916754

>  <path>  (684) 
/opt/xchem-fragalysis-2/maxwin/BulkDock/SCRATCH/511020/C33773-P93/C33773-P93.minimised.mol

>  <scratch_subdir>  (684) 
/opt/xchem-fragalysis-2/maxwin/BulkDock/SCRATCH/511020/C33773-P93

>  <fragmenstein_runtime>  (684) 
17.894307136535645

>  <fragmenstein_outcome>  (684) 
too moved

>  <fragmenstein_mode>  (684) 
expansion

>  <fragmenstein_error>  (684) 


$$$$
C33775-P112
     RDKit          3D

 41 44  0  0  0  0  0  0  0  0999 V2000
   -1.0399  -11.0560   11.8930 O   0  0  0  0  0  0  0  0  0  0  0  0
    0.1285  -11.7808   12.1981 S   0  0  0  0  0  0  0  0  0  0  0  0
    0.7174  -12.8137   11.3847 O   0  0  0  0  0  0  0  0  0  0  0  0
   -0.6653  -13.4734   13.3978 N   0  0  0  0  0  0  0  0  0  0  0  0
   -1.4680  -14.2583   14.9873 C   0  0  0  0  0  0  0  0  0  0  0  0
   -1.7695  -13.7846   16.7181 C   0  0  0  0  0  0  0  0  0  0  0  0
   -2.9429  -14.2209   17.3141 N   0  0  0  0  0  0  0  0  0  0  0  0
   -3.7140  -14.8987   16.3754 N   0  0  0  0  0  0  0  0  0  0  0  0
   -4.9222  -15.6704   16.7357 C   0  0  0  0  0  0  0  0  0  0  0  0
   -4.9156  -17.1695   16.3079 C   0  0  0  0  0  0  0  0  0  0  0  0
   -6.3353  -17.5268   15.8375 C   0  0  0  0  0  0  0  0  0  0  0  0
   -7.2015  -16.3573   16.2685 C   0  0  0  0  0  0  0  0  0  0  0  0
   -6.2565  -15.1622   16.1557 C   0  0  0  0  0  0  0  0  0  0  0  0
   -3.1833  -14.8512   15.0750 C   0  0  0  0  0  0  0  0  0  0  0  0
    1.4014  -10.1552   11.2383 C   0  0  0  0  0  0  0  0  0  0  0  0
    2.8307   -9.9541   11.3919 C   0  0  0  0  0  0  0  0  0  0  0  0
    3.2787   -8.1856   11.5233 N   0  0  0  0  0  0  0  0  0  0  0  0
    2.1826   -7.3284   11.0944 C   0  0  0  0  0  0  0  0  0  0  0  0
    2.2650   -5.9437   10.8484 C   0  0  0  0  0  0  0  0  0  0  0  0
    1.3062   -5.3984   10.0234 C   0  0  0  0  0  0  0  0  0  0  0  0
    0.4074   -6.2421    9.3907 C   0  0  0  0  0  0  0  0  0  0  0  0
    0.3627   -7.6339    9.6728 C   0  0  0  0  0  0  0  0  0  0  0  0
    1.1074   -8.2958   10.7860 C   0  0  0  0  0  0  0  0  0  0  0  0
   -0.5815  -14.1808   12.6506 H   0  0  0  0  0  0  0  0  0  0  0  0
   -1.0329  -13.2904   17.3302 H   0  0  0  0  0  0  0  0  0  0  0  0
   -4.9775  -15.6290   17.8320 H   0  0  0  0  0  0  0  0  0  0  0  0
   -4.2017  -17.3814   15.5056 H   0  0  0  0  0  0  0  0  0  0  0  0
   -4.6274  -17.7914   17.1634 H   0  0  0  0  0  0  0  0  0  0  0  0
   -6.6818  -18.4769   16.2548 H   0  0  0  0  0  0  0  0  0  0  0  0
   -6.3449  -17.6171   14.7447 H   0  0  0  0  0  0  0  0  0  0  0  0
   -8.0921  -16.2446   15.6439 H   0  0  0  0  0  0  0  0  0  0  0  0
   -7.5228  -16.4858   17.3086 H   0  0  0  0  0  0  0  0  0  0  0  0
   -6.6307  -14.2910   16.7025 H   0  0  0  0  0  0  0  0  0  0  0  0
   -6.1515  -14.8771   15.1026 H   0  0  0  0  0  0  0  0  0  0  0  0
   -3.9034  -14.9881   14.2704 H   0  0  0  0  0  0  0  0  0  0  0  0
    3.3825  -10.1621   12.2488 H   0  0  0  0  0  0  0  0  0  0  0  0
    3.6060   -8.0319   12.4578 H   0  0  0  0  0  0  0  0  0  0  0  0
    3.1157   -5.3583   11.1812 H   0  0  0  0  0  0  0  0  0  0  0  0
    1.3357   -4.3434    9.7670 H   0  0  0  0  0  0  0  0  0  0  0  0
   -0.2555   -5.8452    8.6243 H   0  0  0  0  0  0  0  0  0  0  0  0
   -0.2772   -8.2538    9.0410 H   0  0  0  0  0  0  0  0  0  0  0  0
  1  2  2  0
  2  3  2  0
  2  4  1  0
  4  5  1  0
  5  6  1  0
  6  7  2  0
  7  8  1  0
  8  9  1  0
  9 10  1  0
 10 11  1  0
 11 12  1  0
 12 13  1  0
  8 14  1  0
  2 15  1  0
 15 16  2  0
 16 17  1  0
 17 18  1  0
 18 19  2  0
 19 20  1  0
 20 21  2  0
 21 22  1  0
 22 23  2  0
 14  5  2  0
 23 15  1  0
 13  9  1  0
 23 18  1  0
  4 24  1  0
  6 25  1  0
  9 26  1  0
 10 27  1  0
 10 28  1  0
 11 29  1  0
 11 30  1  0
 12 31  1  0
 12 32  1  0
 13 33  1  0
 13 34  1  0
 14 35  1  0
 16 36  1  0
 17 37  1  0
 19 38  1  0
 20 39  1  0
 21 40  1  0
 22 41  1  0
M  END
>  <Energy>  (685) 
668.35140149463075

>  <compound_id>  (685) 
33775

>  <target_id>  (685) 
1

>  <reference_id>  (685) 
112

>  <inspiration_ids>  (685) 
[112, 93]

>  <energy_score>  (685) 
625.4773316605055

>  <distance_score>  (685) 
14.026379493957805

>  <path>  (685) 
/opt/xchem-fragalysis-2/maxwin/BulkDock/SCRATCH/511020/C33775-P112/C33775-P112.minimised.mol

>  <scratch_subdir>  (685) 
/opt/xchem-fragalysis-2/maxwin/BulkDock/SCRATCH/511020/C33775-P112

>  <fragmenstein_runtime>  (685) 
15.005040407180786

>  <fragmenstein_outcome>  (685) 
too moved

>  <fragmenstein_mode>  (685) 
expansion

>  <fragmenstein_error>  (685) 


$$$$
C33775-P93
     RDKit          3D

 41 44  0  0  0  0  0  0  0  0999 V2000
    2.7554  -17.0958    6.8748 O   0  0  0  0  0  0  0  0  0  0  0  0
    3.7651  -17.8742    7.5509 S   0  0  0  0  0  0  0  0  0  0  0  0
    4.6407  -18.8015    6.8680 O   0  0  0  0  0  0  0  0  0  0  0  0
    3.0419  -18.7260    8.8863 N   0  0  0  0  0  0  0  0  0  0  0  0
    1.9313  -19.6675    8.9689 C   0  0  0  0  0  0  0  0  0  0  0  0
    1.7366  -20.5077   10.1163 C   0  0  0  0  0  0  0  0  0  0  0  0
    0.6910  -21.3321   10.0462 N   0  0  0  0  0  0  0  0  0  0  0  0
    0.0774  -20.9716    8.8938 N   0  0  0  0  0  0  0  0  0  0  0  0
   -1.1560  -21.6765    8.5261 C   0  0  0  0  0  0  0  0  0  0  0  0
   -2.2538  -20.8941    7.7706 C   0  0  0  0  0  0  0  0  0  0  0  0
   -3.5965  -21.2787    8.4054 C   0  0  0  0  0  0  0  0  0  0  0  0
   -3.3170  -22.5638    9.1631 C   0  0  0  0  0  0  0  0  0  0  0  0
   -1.9217  -22.3201    9.7095 C   0  0  0  0  0  0  0  0  0  0  0  0
    0.8451  -20.0373    8.1813 C   0  0  0  0  0  0  0  0  0  0  0  0
    4.9422  -16.6237    8.1628 C   0  0  0  0  0  0  0  0  0  0  0  0
    5.0873  -16.3789    9.5037 C   0  0  0  0  0  0  0  0  0  0  0  0
    5.9035  -15.2916    9.6746 N   0  0  0  0  0  0  0  0  0  0  0  0
    6.5671  -14.9977    8.5194 C   0  0  0  0  0  0  0  0  0  0  0  0
    7.6381  -14.1056    8.3061 C   0  0  0  0  0  0  0  0  0  0  0  0
    8.0003  -13.8293    6.9983 C   0  0  0  0  0  0  0  0  0  0  0  0
    7.3475  -14.4798    5.9591 C   0  0  0  0  0  0  0  0  0  0  0  0
    6.3402  -15.4453    6.1994 C   0  0  0  0  0  0  0  0  0  0  0  0
    5.9172  -15.7385    7.5141 C   0  0  0  0  0  0  0  0  0  0  0  0
    3.7701  -18.9352    9.5661 H   0  0  0  0  0  0  0  0  0  0  0  0
    2.3532  -20.5536   11.0036 H   0  0  0  0  0  0  0  0  0  0  0  0
   -0.8083  -22.4866    7.8691 H   0  0  0  0  0  0  0  0  0  0  0  0
   -2.1126  -19.8101    7.7866 H   0  0  0  0  0  0  0  0  0  0  0  0
   -2.2445  -21.1936    6.7153 H   0  0  0  0  0  0  0  0  0  0  0  0
   -4.3831  -21.3944    7.6546 H   0  0  0  0  0  0  0  0  0  0  0  0
   -3.8982  -20.4874    9.1014 H   0  0  0  0  0  0  0  0  0  0  0  0
   -4.0264  -22.7718    9.9637 H   0  0  0  0  0  0  0  0  0  0  0  0
   -3.3140  -23.4179    8.4759 H   0  0  0  0  0  0  0  0  0  0  0  0
   -1.9694  -21.6383   10.5673 H   0  0  0  0  0  0  0  0  0  0  0  0
   -1.4490  -23.2496   10.0436 H   0  0  0  0  0  0  0  0  0  0  0  0
    0.5130  -19.6946    7.2129 H   0  0  0  0  0  0  0  0  0  0  0  0
    4.6005  -16.8697   10.3325 H   0  0  0  0  0  0  0  0  0  0  0  0
    6.0984  -14.8592   10.5687 H   0  0  0  0  0  0  0  0  0  0  0  0
    8.1577  -13.6161    9.1230 H   0  0  0  0  0  0  0  0  0  0  0  0
    8.7939  -13.1181    6.7855 H   0  0  0  0  0  0  0  0  0  0  0  0
    7.6345  -14.2693    4.9301 H   0  0  0  0  0  0  0  0  0  0  0  0
    5.8769  -15.9562    5.3571 H   0  0  0  0  0  0  0  0  0  0  0  0
  1  2  2  0
  2  3  2  0
  2  4  1  0
  4  5  1  0
  5  6  1  0
  6  7  2  0
  7  8  1  0
  8  9  1  0
  9 10  1  0
 10 11  1  0
 11 12  1  0
 12 13  1  0
  8 14  1  0
  2 15  1  0
 15 16  2  0
 16 17  1  0
 17 18  1  0
 18 19  2  0
 19 20  1  0
 20 21  2  0
 21 22  1  0
 22 23  2  0
 14  5  2  0
 23 15  1  0
 13  9  1  0
 23 18  1  0
  4 24  1  0
  6 25  1  0
  9 26  1  0
 10 27  1  0
 10 28  1  0
 11 29  1  0
 11 30  1  0
 12 31  1  0
 12 32  1  0
 13 33  1  0
 13 34  1  0
 14 35  1  0
 16 36  1  0
 17 37  1  0
 19 38  1  0
 20 39  1  0
 21 40  1  0
 22 41  1  0
M  END
>  <Energy>  (686) 
33.461665011952306

>  <compound_id>  (686) 
33775

>  <target_id>  (686) 
1

>  <reference_id>  (686) 
93

>  <inspiration_ids>  (686) 
[112, 93]

>  <energy_score>  (686) 
-9.412404822168128

>  <distance_score>  (686) 
15.551835310551478

>  <path>  (686) 
/opt/xchem-fragalysis-2/maxwin/BulkDock/SCRATCH/511020/C33775-P93/C33775-P93.minimised.mol

>  <scratch_subdir>  (686) 
/opt/xchem-fragalysis-2/maxwin/BulkDock/SCRATCH/511020/C33775-P93

>  <fragmenstein_runtime>  (686) 
18.64907479286194

>  <fragmenstein_outcome>  (686) 
too moved

>  <fragmenstein_mode>  (686) 
expansion

>  <fragmenstein_error>  (686) 


$$$$
C54274-P112
     RDKit          3D

 43 46  0  0  0  0  0  0  0  0999 V2000
    5.5045  -22.2113   15.4676 O   0  0  0  0  0  0  0  0  0  0  0  0
    4.4516  -21.6271   15.4158 C   0  0  0  0  0  0  0  0  0  0  0  0
    3.0677  -22.1454   15.2808 N   0  0  0  0  0  0  0  0  0  0  0  0
    2.5611  -23.5386   15.0677 C   0  0  0  0  0  0  0  0  0  0  0  0
    1.1117  -24.0262   15.3788 C   0  0  0  0  0  0  0  0  0  0  0  0
    0.4184  -24.0779   16.6198 C   0  0  0  0  0  0  0  0  0  0  0  0
   -0.7442  -24.7981   16.3976 C   0  0  0  0  0  0  0  0  0  0  0  0
   -0.7418  -25.1544   15.0774 N   0  0  0  0  0  0  0  0  0  0  0  0
   -1.6776  -26.0233   14.3609 C   0  0  0  0  0  0  0  0  0  0  0  0
   -2.4713  -25.3636   13.2248 C   0  0  0  0  0  0  0  0  0  0  0  0
   -3.5831  -26.3604   12.8780 C   0  0  0  0  0  0  0  0  0  0  0  0
   -3.7754  -27.2282   14.1229 C   0  0  0  0  0  0  0  0  0  0  0  0
   -2.8021  -26.6847   15.1742 C   0  0  0  0  0  0  0  0  0  0  0  0
    0.3864  -24.7071   14.4487 N   0  0  0  0  0  0  0  0  0  0  0  0
    4.6967  -20.0782   15.4383 C   0  0  0  0  0  0  0  0  0  0  0  0
    3.6912  -19.1040   15.5398 C   0  0  0  0  0  0  0  0  0  0  0  0
    3.9797  -17.7310   15.5807 C   0  0  0  0  0  0  0  0  0  0  0  0
    5.2816  -17.2540   15.4869 C   0  0  0  0  0  0  0  0  0  0  0  0
    6.3453  -18.1466   15.4209 C   0  0  0  0  0  0  0  0  0  0  0  0
    7.7588  -17.9618   15.3923 C   0  0  0  0  0  0  0  0  0  0  0  0
    8.3165  -19.2118   15.3591 C   0  0  0  0  0  0  0  0  0  0  0  0
    7.2891  -20.1275   15.3344 N   0  0  0  0  0  0  0  0  0  0  0  0
    6.0452  -19.5166   15.3982 C   0  0  0  0  0  0  0  0  0  0  0  0
    2.4274  -21.3638   15.1864 H   0  0  0  0  0  0  0  0  0  0  0  0
    3.2473  -24.1908   15.6222 H   0  0  0  0  0  0  0  0  0  0  0  0
    2.7522  -23.7367   14.0053 H   0  0  0  0  0  0  0  0  0  0  0  0
    0.7519  -23.6713   17.5648 H   0  0  0  0  0  0  0  0  0  0  0  0
   -1.5361  -25.0863   17.0738 H   0  0  0  0  0  0  0  0  0  0  0  0
   -1.0514  -26.8216   13.9368 H   0  0  0  0  0  0  0  0  0  0  0  0
   -1.8446  -25.1608   12.3511 H   0  0  0  0  0  0  0  0  0  0  0  0
   -2.8897  -24.4100   13.5568 H   0  0  0  0  0  0  0  0  0  0  0  0
   -3.2705  -26.9919   12.0380 H   0  0  0  0  0  0  0  0  0  0  0  0
   -4.5017  -25.8531   12.5686 H   0  0  0  0  0  0  0  0  0  0  0  0
   -3.5189  -28.2673   13.8839 H   0  0  0  0  0  0  0  0  0  0  0  0
   -4.8084  -27.2314   14.4827 H   0  0  0  0  0  0  0  0  0  0  0  0
   -2.4229  -27.4828   15.8212 H   0  0  0  0  0  0  0  0  0  0  0  0
   -3.3020  -25.9575   15.8178 H   0  0  0  0  0  0  0  0  0  0  0  0
    2.6431  -19.3893   15.6001 H   0  0  0  0  0  0  0  0  0  0  0  0
    3.1603  -17.0298   15.6875 H   0  0  0  0  0  0  0  0  0  0  0  0
    5.4849  -16.2048   15.4990 H   0  0  0  0  0  0  0  0  0  0  0  0
    8.2928  -17.0213   15.4011 H   0  0  0  0  0  0  0  0  0  0  0  0
    9.3458  -19.5417   15.3266 H   0  0  0  0  0  0  0  0  0  0  0  0
    7.3846  -21.1362   15.2845 H   0  0  0  0  0  0  0  0  0  0  0  0
  1  2  2  0
  2  3  1  0
  3  4  1  0
  4  5  1  0
  5  6  1  0
  6  7  2  0
  7  8  1  0
  8  9  1  0
  9 10  1  0
 10 11  1  0
 11 12  1  0
 12 13  1  0
  8 14  1  0
  2 15  1  0
 15 16  2  0
 16 17  1  0
 17 18  2  0
 18 19  1  0
 19 20  1  0
 20 21  2  0
 21 22  1  0
 22 23  1  0
 14  5  2  0
 23 15  1  0
 13  9  1  0
 23 19  2  0
  3 24  1  0
  4 25  1  0
  4 26  1  0
  6 27  1  0
  7 28  1  0
  9 29  1  0
 10 30  1  0
 10 31  1  0
 11 32  1  0
 11 33  1  0
 12 34  1  0
 12 35  1  0
 13 36  1  0
 13 37  1  0
 16 38  1  0
 17 39  1  0
 18 40  1  0
 20 41  1  0
 21 42  1  0
 22 43  1  0
M  END
>  <Energy>  (687) 
61.715729359322374

>  <compound_id>  (687) 
54274

>  <target_id>  (687) 
1

>  <reference_id>  (687) 
112

>  <inspiration_ids>  (687) 
[112, 93]

>  <energy_score>  (687) 
-10.794468233871058

>  <distance_score>  (687) 
15.101313797964517

>  <path>  (687) 
/opt/xchem-fragalysis-2/maxwin/BulkDock/SCRATCH/511020/C54274-P112/C54274-P112.minimised.mol

>  <scratch_subdir>  (687) 
/opt/xchem-fragalysis-2/maxwin/BulkDock/SCRATCH/511020/C54274-P112

>  <fragmenstein_runtime>  (687) 
15.357585191726685

>  <fragmenstein_outcome>  (687) 
too moved

>  <fragmenstein_mode>  (687) 
expansion

>  <fragmenstein_error>  (687) 


$$$$
C54274-P93
     RDKit          3D

 43 46  0  0  0  0  0  0  0  0999 V2000
   -2.7164   -9.1936   19.4033 O   0  0  0  0  0  0  0  0  0  0  0  0
   -3.1390   -9.2037   18.2766 C   0  0  0  0  0  0  0  0  0  0  0  0
   -4.3206   -9.9141   17.6877 N   0  0  0  0  0  0  0  0  0  0  0  0
   -5.4109  -10.7620   18.3513 C   0  0  0  0  0  0  0  0  0  0  0  0
   -6.4635  -11.6960   17.5820 C   0  0  0  0  0  0  0  0  0  0  0  0
   -7.5566  -11.2768   16.7653 C   0  0  0  0  0  0  0  0  0  0  0  0
   -8.3199  -12.3967   16.4865 C   0  0  0  0  0  0  0  0  0  0  0  0
   -7.7039  -13.4510   17.0982 N   0  0  0  0  0  0  0  0  0  0  0  0
   -8.1269  -14.8607   17.0583 C   0  0  0  0  0  0  0  0  0  0  0  0
   -8.4187  -15.4609   15.6517 C   0  0  0  0  0  0  0  0  0  0  0  0
   -9.8101  -16.1005   15.7078 C   0  0  0  0  0  0  0  0  0  0  0  0
  -10.0218  -16.3880   17.1811 C   0  0  0  0  0  0  0  0  0  0  0  0
   -9.4105  -15.1625   17.8573 C   0  0  0  0  0  0  0  0  0  0  0  0
   -6.6054  -13.0354   17.8157 N   0  0  0  0  0  0  0  0  0  0  0  0
   -2.2026   -8.3132   17.3337 C   0  0  0  0  0  0  0  0  0  0  0  0
   -2.5151   -7.9473   16.0135 C   0  0  0  0  0  0  0  0  0  0  0  0
   -1.6650   -7.1459   15.2156 C   0  0  0  0  0  0  0  0  0  0  0  0
   -0.4384   -6.6573   15.6771 C   0  0  0  0  0  0  0  0  0  0  0  0
   -0.0465   -6.9793   16.9816 C   0  0  0  0  0  0  0  0  0  0  0  0
    1.1327   -6.6650   17.7283 C   0  0  0  0  0  0  0  0  0  0  0  0
    0.9962   -7.2608   18.9540 C   0  0  0  0  0  0  0  0  0  0  0  0
   -0.2256   -7.9005   18.9761 N   0  0  0  0  0  0  0  0  0  0  0  0
   -0.9123   -7.7675   17.7740 C   0  0  0  0  0  0  0  0  0  0  0  0
   -4.3346   -9.7645   16.6925 H   0  0  0  0  0  0  0  0  0  0  0  0
   -6.0148  -10.0327   18.9067 H   0  0  0  0  0  0  0  0  0  0  0  0
   -4.9025  -11.3626   19.1119 H   0  0  0  0  0  0  0  0  0  0  0  0
   -7.7743  -10.2664   16.4477 H   0  0  0  0  0  0  0  0  0  0  0  0
   -9.2260  -12.5184   15.9101 H   0  0  0  0  0  0  0  0  0  0  0  0
   -7.2944  -15.4269   17.4975 H   0  0  0  0  0  0  0  0  0  0  0  0
   -8.3576  -14.7266   14.8425 H   0  0  0  0  0  0  0  0  0  0  0  0
   -7.6784  -16.2422   15.4406 H   0  0  0  0  0  0  0  0  0  0  0  0
  -10.5596  -15.3826   15.3540 H   0  0  0  0  0  0  0  0  0  0  0  0
   -9.8840  -16.9986   15.0892 H   0  0  0  0  0  0  0  0  0  0  0  0
  -11.0776  -16.5178   17.4345 H   0  0  0  0  0  0  0  0  0  0  0  0
   -9.4786  -17.2930   17.4766 H   0  0  0  0  0  0  0  0  0  0  0  0
  -10.1132  -14.3218   17.8058 H   0  0  0  0  0  0  0  0  0  0  0  0
   -9.1947  -15.3459   18.9148 H   0  0  0  0  0  0  0  0  0  0  0  0
   -3.4537   -8.2624   15.5632 H   0  0  0  0  0  0  0  0  0  0  0  0
   -1.9774   -6.9044   14.1991 H   0  0  0  0  0  0  0  0  0  0  0  0
    0.1912   -6.0521   15.0316 H   0  0  0  0  0  0  0  0  0  0  0  0
    1.9752   -6.0775   17.3900 H   0  0  0  0  0  0  0  0  0  0  0  0
    1.6423   -7.3039   19.8189 H   0  0  0  0  0  0  0  0  0  0  0  0
   -0.5541   -8.5208   19.7105 H   0  0  0  0  0  0  0  0  0  0  0  0
  1  2  2  0
  2  3  1  0
  3  4  1  0
  4  5  1  0
  5  6  1  0
  6  7  2  0
  7  8  1  0
  8  9  1  0
  9 10  1  0
 10 11  1  0
 11 12  1  0
 12 13  1  0
  8 14  1  0
  2 15  1  0
 15 16  2  0
 16 17  1  0
 17 18  2  0
 18 19  1  0
 19 20  1  0
 20 21  2  0
 21 22  1  0
 22 23  1  0
 14  5  2  0
 23 15  1  0
 13  9  1  0
 23 19  2  0
  3 24  1  0
  4 25  1  0
  4 26  1  0
  6 27  1  0
  7 28  1  0
  9 29  1  0
 10 30  1  0
 10 31  1  0
 11 32  1  0
 11 33  1  0
 12 34  1  0
 12 35  1  0
 13 36  1  0
 13 37  1  0
 16 38  1  0
 17 39  1  0
 18 40  1  0
 20 41  1  0
 21 42  1  0
 22 43  1  0
M  END
>  <Energy>  (688) 
71.013210414468219

>  <compound_id>  (688) 
54274

>  <target_id>  (688) 
1

>  <reference_id>  (688) 
93

>  <inspiration_ids>  (688) 
[112, 93]

>  <energy_score>  (688) 
-1.4969871787276645

>  <distance_score>  (688) 
13.921906113414838

>  <path>  (688) 
/opt/xchem-fragalysis-2/maxwin/BulkDock/SCRATCH/511020/C54274-P93/C54274-P93.minimised.mol

>  <scratch_subdir>  (688) 
/opt/xchem-fragalysis-2/maxwin/BulkDock/SCRATCH/511020/C54274-P93

>  <fragmenstein_runtime>  (688) 
17.37453317642212

>  <fragmenstein_outcome>  (688) 
too moved

>  <fragmenstein_mode>  (688) 
expansion

>  <fragmenstein_error>  (688) 


$$$$
C33777-P112
     RDKit          3D

 47 50  0  0  0  0  0  0  0  0999 V2000
   11.7805   -8.8011   15.9498 C   0  0  0  0  0  0  0  0  0  0  0  0
   12.1864   -7.0681   16.0979 C   0  0  0  0  0  0  0  0  0  0  0  0
   10.8737   -6.1209   15.6710 C   0  0  0  0  0  0  0  0  0  0  0  0
    9.3233   -7.0397   15.0501 C   0  0  0  0  0  0  0  0  0  0  0  0
    7.3078   -7.5025   14.5242 C   0  0  0  0  0  0  0  0  0  0  0  0
    6.7328   -9.3069   13.6482 C   0  0  0  0  0  0  0  0  0  0  0  0
    4.8905  -10.2408   13.3515 C   0  0  0  0  0  0  0  0  0  0  0  0
    3.4201  -10.0989   12.0323 N   0  0  0  0  0  0  0  0  0  0  0  0
    2.1101  -11.1118   11.1712 C   0  0  0  0  0  0  0  0  0  0  0  0
    0.9585  -12.6831   11.5126 C   0  0  0  0  0  0  0  0  0  0  0  0
   -0.2991  -12.8275   11.9521 C   0  0  0  0  0  0  0  0  0  0  0  0
   -0.7280  -14.1653   11.5771 C   0  0  0  0  0  0  0  0  0  0  0  0
    0.3565  -14.9459   11.4432 N   0  0  0  0  0  0  0  0  0  0  0  0
    0.6206  -16.3265   10.8382 C   0  0  0  0  0  0  0  0  0  0  0  0
    1.9285  -16.6269   10.0442 C   0  0  0  0  0  0  0  0  0  0  0  0
    1.7294  -17.9537    9.3037 C   0  0  0  0  0  0  0  0  0  0  0  0
    0.3258  -17.8492    8.8035 C   0  0  0  0  0  0  0  0  0  0  0  0
   -0.3633  -17.2436   10.0116 C   0  0  0  0  0  0  0  0  0  0  0  0
    1.2973  -14.0193   11.7552 N   0  0  0  0  0  0  0  0  0  0  0  0
    6.5297   -6.6307   15.1744 C   0  0  0  0  0  0  0  0  0  0  0  0
    8.2827   -6.8191   14.8786 N   0  0  0  0  0  0  0  0  0  0  0  0
    9.4418   -8.2433   15.3560 C   0  0  0  0  0  0  0  0  0  0  0  0
   10.2889   -9.3666   15.7151 C   0  0  0  0  0  0  0  0  0  0  0  0
   12.5082   -9.5832   15.8149 H   0  0  0  0  0  0  0  0  0  0  0  0
   13.1108   -6.6099   15.7650 H   0  0  0  0  0  0  0  0  0  0  0  0
   11.0844   -5.0896   15.3363 H   0  0  0  0  0  0  0  0  0  0  0  0
    7.3665  -10.1282   14.0032 H   0  0  0  0  0  0  0  0  0  0  0  0
    7.2822   -9.3621   12.7142 H   0  0  0  0  0  0  0  0  0  0  0  0
    4.3508  -10.3207   14.2792 H   0  0  0  0  0  0  0  0  0  0  0  0
    5.3266  -11.2341   13.2184 H   0  0  0  0  0  0  0  0  0  0  0  0
    3.0711   -9.1469   12.0714 H   0  0  0  0  0  0  0  0  0  0  0  0
    2.7321  -11.4625   10.3310 H   0  0  0  0  0  0  0  0  0  0  0  0
    1.4233  -10.3350   10.8412 H   0  0  0  0  0  0  0  0  0  0  0  0
   -0.7794  -11.8939   12.1774 H   0  0  0  0  0  0  0  0  0  0  0  0
   -1.6721  -14.5916   11.2880 H   0  0  0  0  0  0  0  0  0  0  0  0
    0.7145  -16.9298   11.7194 H   0  0  0  0  0  0  0  0  0  0  0  0
    2.8001  -16.7799   10.6807 H   0  0  0  0  0  0  0  0  0  0  0  0
    2.1625  -15.8411    9.3206 H   0  0  0  0  0  0  0  0  0  0  0  0
    1.8394  -18.7962    9.9973 H   0  0  0  0  0  0  0  0  0  0  0  0
    2.4552  -18.0823    8.4953 H   0  0  0  0  0  0  0  0  0  0  0  0
   -0.0950  -18.8187    8.5203 H   0  0  0  0  0  0  0  0  0  0  0  0
    0.2802  -17.1921    7.9294 H   0  0  0  0  0  0  0  0  0  0  0  0
   -0.5599  -18.1227   10.6213 H   0  0  0  0  0  0  0  0  0  0  0  0
   -1.2903  -16.8259    9.6602 H   0  0  0  0  0  0  0  0  0  0  0  0
    6.5669   -5.7912   15.8680 H   0  0  0  0  0  0  0  0  0  0  0  0
    8.4226   -5.7341   14.9958 H   0  0  0  0  0  0  0  0  0  0  0  0
    9.9909  -10.4005   15.6832 H   0  0  0  0  0  0  0  0  0  0  0  0
  1  2  2  0
  2  3  1  0
  3  4  2  0
  4  5  1  0
  5  6  1  0
  6  7  1  0
  7  8  1  0
  8  9  1  0
  9 10  1  0
 10 11  1  0
 11 12  2  0
 12 13  1  0
 13 14  1  0
 14 15  1  0
 15 16  1  0
 16 17  1  0
 17 18  1  0
 13 19  1  0
  5 20  2  0
 20 21  1  0
 21 22  1  0
 22 23  2  0
 23  1  1  0
 22  4  1  0
 19 10  2  0
 18 14  1  0
  1 24  1  0
  2 25  1  0
  3 26  1  0
  6 27  1  0
  6 28  1  0
  7 29  1  0
  7 30  1  0
  8 31  1  0
  9 32  1  0
  9 33  1  0
 11 34  1  0
 12 35  1  0
 14 36  1  0
 15 37  1  0
 15 38  1  0
 16 39  1  0
 16 40  1  0
 17 41  1  0
 17 42  1  0
 18 43  1  0
 18 44  1  0
 20 45  1  0
 21 46  1  0
 23 47  1  0
M  END
>  <Energy>  (689) 
1375.0681663509604

>  <compound_id>  (689) 
33777

>  <target_id>  (689) 
1

>  <reference_id>  (689) 
112

>  <inspiration_ids>  (689) 
[112, 93]

>  <energy_score>  (689) 
1291.617695372258

>  <distance_score>  (689) 
13.466467784538331

>  <path>  (689) 
/opt/xchem-fragalysis-2/maxwin/BulkDock/SCRATCH/511020/C33777-P112/C33777-P112.minimised.mol

>  <scratch_subdir>  (689) 
/opt/xchem-fragalysis-2/maxwin/BulkDock/SCRATCH/511020/C33777-P112

>  <fragmenstein_runtime>  (689) 
18.853553533554077

>  <fragmenstein_outcome>  (689) 
too moved

>  <fragmenstein_mode>  (689) 
expansion

>  <fragmenstein_error>  (689) 


$$$$
C33777-P93
     RDKit          3D

 47 50  0  0  0  0  0  0  0  0999 V2000
    7.1555   -8.1707   13.2658 C   0  0  0  0  0  0  0  0  0  0  0  0
    5.9063   -7.5996   13.1715 C   0  0  0  0  0  0  0  0  0  0  0  0
    4.4928   -8.1236   13.4682 C   0  0  0  0  0  0  0  0  0  0  0  0
    4.2976   -9.7292   13.7591 C   0  0  0  0  0  0  0  0  0  0  0  0
    3.3786  -10.7735   13.6408 C   0  0  0  0  0  0  0  0  0  0  0  0
    1.6152  -11.2752   12.7209 C   0  0  0  0  0  0  0  0  0  0  0  0
    0.0599  -12.5725   12.5679 C   0  0  0  0  0  0  0  0  0  0  0  0
   -1.2141  -13.6917   13.4338 N   0  0  0  0  0  0  0  0  0  0  0  0
   -3.2513  -14.1864   13.1703 C   0  0  0  0  0  0  0  0  0  0  0  0
   -4.5699  -15.0171   12.2882 C   0  0  0  0  0  0  0  0  0  0  0  0
   -5.4698  -14.2446   11.4764 C   0  0  0  0  0  0  0  0  0  0  0  0
   -6.4969  -15.0682   11.1195 C   0  0  0  0  0  0  0  0  0  0  0  0
   -6.2382  -16.2726   11.7004 N   0  0  0  0  0  0  0  0  0  0  0  0
   -6.9385  -17.5028   11.3409 C   0  0  0  0  0  0  0  0  0  0  0  0
   -8.4817  -17.4044   11.2417 C   0  0  0  0  0  0  0  0  0  0  0  0
   -8.8533  -18.4420   10.1926 C   0  0  0  0  0  0  0  0  0  0  0  0
   -7.8032  -18.1915    9.1369 C   0  0  0  0  0  0  0  0  0  0  0  0
   -6.5169  -17.9471    9.9247 C   0  0  0  0  0  0  0  0  0  0  0  0
   -5.1097  -16.2547   12.4873 N   0  0  0  0  0  0  0  0  0  0  0  0
    4.1800  -11.3512   14.6588 C   0  0  0  0  0  0  0  0  0  0  0  0
    5.3034  -11.6595   13.9413 N   0  0  0  0  0  0  0  0  0  0  0  0
    5.7121  -10.4023   13.8679 C   0  0  0  0  0  0  0  0  0  0  0  0
    7.1414   -9.4371   13.6597 C   0  0  0  0  0  0  0  0  0  0  0  0
    7.9815   -7.7320   12.7670 H   0  0  0  0  0  0  0  0  0  0  0  0
    5.8923   -6.8596   12.3470 H   0  0  0  0  0  0  0  0  0  0  0  0
    3.8698   -7.7366   12.6583 H   0  0  0  0  0  0  0  0  0  0  0  0
    1.9458  -11.3008   11.6580 H   0  0  0  0  0  0  0  0  0  0  0  0
    1.4580  -11.8787   13.6732 H   0  0  0  0  0  0  0  0  0  0  0  0
   -0.5443  -11.8477   12.0328 H   0  0  0  0  0  0  0  0  0  0  0  0
    0.4022  -13.3252   11.8523 H   0  0  0  0  0  0  0  0  0  0  0  0
   -0.7881  -14.6048   13.2617 H   0  0  0  0  0  0  0  0  0  0  0  0
   -3.9338  -13.3421   13.2634 H   0  0  0  0  0  0  0  0  0  0  0  0
   -3.0533  -14.4356   12.0328 H   0  0  0  0  0  0  0  0  0  0  0  0
   -5.3769  -13.1991   11.2204 H   0  0  0  0  0  0  0  0  0  0  0  0
   -7.3523  -14.8897   10.4852 H   0  0  0  0  0  0  0  0  0  0  0  0
   -6.6541  -18.2640   12.0762 H   0  0  0  0  0  0  0  0  0  0  0  0
   -8.8101  -16.4201   10.8899 H   0  0  0  0  0  0  0  0  0  0  0  0
   -8.9964  -17.5559   12.1864 H   0  0  0  0  0  0  0  0  0  0  0  0
   -9.8504  -18.2893    9.7766 H   0  0  0  0  0  0  0  0  0  0  0  0
   -8.7767  -19.4559   10.5989 H   0  0  0  0  0  0  0  0  0  0  0  0
   -8.0567  -17.2829    8.5750 H   0  0  0  0  0  0  0  0  0  0  0  0
   -7.7262  -18.9976    8.4054 H   0  0  0  0  0  0  0  0  0  0  0  0
   -5.8999  -17.2090    9.3981 H   0  0  0  0  0  0  0  0  0  0  0  0
   -5.8957  -18.8391    9.9967 H   0  0  0  0  0  0  0  0  0  0  0  0
    3.9128  -11.8185   15.5806 H   0  0  0  0  0  0  0  0  0  0  0  0
    5.9476  -12.4285   14.0642 H   0  0  0  0  0  0  0  0  0  0  0  0
    8.0745   -9.8990   14.0390 H   0  0  0  0  0  0  0  0  0  0  0  0
  1  2  2  0
  2  3  1  0
  3  4  2  0
  4  5  1  0
  5  6  1  0
  6  7  1  0
  7  8  1  0
  8  9  1  0
  9 10  1  0
 10 11  1  0
 11 12  2  0
 12 13  1  0
 13 14  1  0
 14 15  1  0
 15 16  1  0
 16 17  1  0
 17 18  1  0
 13 19  1  0
  5 20  2  0
 20 21  1  0
 21 22  1  0
 22 23  2  0
 23  1  1  0
 22  4  1  0
 19 10  2  0
 18 14  1  0
  1 24  1  0
  2 25  1  0
  3 26  1  0
  6 27  1  0
  6 28  1  0
  7 29  1  0
  7 30  1  0
  8 31  1  0
  9 32  1  0
  9 33  1  0
 11 34  1  0
 12 35  1  0
 14 36  1  0
 15 37  1  0
 15 38  1  0
 16 39  1  0
 16 40  1  0
 17 41  1  0
 17 42  1  0
 18 43  1  0
 18 44  1  0
 20 45  1  0
 21 46  1  0
 23 47  1  0
M  END
>  <Energy>  (690) 
773.55978705641303

>  <compound_id>  (690) 
33777

>  <target_id>  (690) 
1

>  <reference_id>  (690) 
93

>  <inspiration_ids>  (690) 
[112, 93]

>  <energy_score>  (690) 
690.1093160777014

>  <distance_score>  (690) 
11.455832235113785

>  <path>  (690) 
/opt/xchem-fragalysis-2/maxwin/BulkDock/SCRATCH/511020/C33777-P93/C33777-P93.minimised.mol

>  <scratch_subdir>  (690) 
/opt/xchem-fragalysis-2/maxwin/BulkDock/SCRATCH/511020/C33777-P93

>  <fragmenstein_runtime>  (690) 
23.061487436294556

>  <fragmenstein_outcome>  (690) 
too moved

>  <fragmenstein_mode>  (690) 
expansion

>  <fragmenstein_error>  (690) 


$$$$
C33779-P112
     RDKit          3D

 46 49  0  0  0  0  0  0  0  0999 V2000
    1.0022  -12.1751   13.3618 O   0  0  0  0  0  0  0  0  0  0  0  0
    0.7875  -11.5690   12.3597 C   0  0  0  0  0  0  0  0  0  0  0  0
    2.4298  -10.4941   11.8602 C   0  0  0  0  0  0  0  0  0  0  0  0
    3.9667  -10.0008   13.2524 C   0  0  0  0  0  0  0  0  0  0  0  0
    4.9742   -8.4311   13.8491 C   0  0  0  0  0  0  0  0  0  0  0  0
    4.2121   -7.3593   13.8796 C   0  0  0  0  0  0  0  0  0  0  0  0
    5.6903   -7.1470   13.8149 N   0  0  0  0  0  0  0  0  0  0  0  0
    6.2441   -6.5979   15.3015 C   0  0  0  0  0  0  0  0  0  0  0  0
    6.9131   -5.4634   16.0182 C   0  0  0  0  0  0  0  0  0  0  0  0
    8.0646   -4.1423   15.6332 C   0  0  0  0  0  0  0  0  0  0  0  0
    8.7035   -4.7585   14.5781 C   0  0  0  0  0  0  0  0  0  0  0  0
    8.2029   -6.5457   14.4766 C   0  0  0  0  0  0  0  0  0  0  0  0
    6.7175   -7.6434   14.4889 C   0  0  0  0  0  0  0  0  0  0  0  0
   -0.4532  -11.6591   11.5041 N   0  0  0  0  0  0  0  0  0  0  0  0
   -1.6304  -12.5424   11.5961 C   0  0  0  0  0  0  0  0  0  0  0  0
   -1.4983  -13.6719   12.4389 C   0  0  0  0  0  0  0  0  0  0  0  0
   -2.3747  -14.6757   12.0231 C   0  0  0  0  0  0  0  0  0  0  0  0
   -3.1229  -14.2435   11.0253 N   0  0  0  0  0  0  0  0  0  0  0  0
   -2.8735  -12.8875   10.9730 N   0  0  0  0  0  0  0  0  0  0  0  0
   -4.1285  -12.1318   10.8376 C   0  0  0  0  0  0  0  0  0  0  0  0
   -5.0890  -12.6685    9.7392 C   0  0  0  0  0  0  0  0  0  0  0  0
   -6.0401  -13.6895   10.3870 C   0  0  0  0  0  0  0  0  0  0  0  0
   -5.9707  -13.4447   11.8887 C   0  0  0  0  0  0  0  0  0  0  0  0
   -5.0475  -12.2325   12.0833 C   0  0  0  0  0  0  0  0  0  0  0  0
    1.9337   -9.7265   11.2634 H   0  0  0  0  0  0  0  0  0  0  0  0
    2.9110  -10.9955   10.9853 H   0  0  0  0  0  0  0  0  0  0  0  0
    4.8966  -10.6317   13.2129 H   0  0  0  0  0  0  0  0  0  0  0  0
    3.5975  -10.3049   14.2293 H   0  0  0  0  0  0  0  0  0  0  0  0
    3.7385   -6.7952   14.6984 H   0  0  0  0  0  0  0  0  0  0  0  0
    6.0096   -6.8274   12.8762 H   0  0  0  0  0  0  0  0  0  0  0  0
    6.5105   -5.5063   17.0587 H   0  0  0  0  0  0  0  0  0  0  0  0
    7.9123   -3.0569   15.5809 H   0  0  0  0  0  0  0  0  0  0  0  0
    9.7794   -4.3423   14.5316 H   0  0  0  0  0  0  0  0  0  0  0  0
    8.2376   -6.8170   13.3767 H   0  0  0  0  0  0  0  0  0  0  0  0
   -0.3868  -10.9700   10.7712 H   0  0  0  0  0  0  0  0  0  0  0  0
   -0.6936  -13.8369   13.1362 H   0  0  0  0  0  0  0  0  0  0  0  0
   -2.4518  -15.7012   12.3581 H   0  0  0  0  0  0  0  0  0  0  0  0
   -3.8278  -11.0981   10.6359 H   0  0  0  0  0  0  0  0  0  0  0  0
   -4.5662  -13.0954    8.8786 H   0  0  0  0  0  0  0  0  0  0  0  0
   -5.6895  -11.8285    9.3667 H   0  0  0  0  0  0  0  0  0  0  0  0
   -7.0590  -13.5644   10.0057 H   0  0  0  0  0  0  0  0  0  0  0  0
   -5.7315  -14.7139   10.1515 H   0  0  0  0  0  0  0  0  0  0  0  0
   -5.5617  -14.3243   12.3980 H   0  0  0  0  0  0  0  0  0  0  0  0
   -6.9612  -13.2580   12.3161 H   0  0  0  0  0  0  0  0  0  0  0  0
   -4.4914  -12.2950   13.0243 H   0  0  0  0  0  0  0  0  0  0  0  0
   -5.6684  -11.3286   12.1307 H   0  0  0  0  0  0  0  0  0  0  0  0
  1  2  2  0
  2  3  1  0
  3  4  1  0
  4  5  1  0
  5  6  2  0
  6  7  1  0
  7  8  1  0
  8  9  2  0
  9 10  1  0
 10 11  2  0
 11 12  1  0
 12 13  2  0
  2 14  1  0
 14 15  1  0
 15 16  2  0
 16 17  1  0
 17 18  2  0
 18 19  1  0
 19 20  1  0
 20 21  1  0
 21 22  1  0
 22 23  1  0
 23 24  1  0
 13  5  1  0
 19 15  1  0
 24 20  1  0
 13  8  1  0
  3 25  1  0
  3 26  1  0
  4 27  1  0
  4 28  1  0
  6 29  1  0
  7 30  1  0
  9 31  1  0
 10 32  1  0
 11 33  1  0
 12 34  1  0
 14 35  1  0
 16 36  1  0
 17 37  1  0
 20 38  1  0
 21 39  1  0
 21 40  1  0
 22 41  1  0
 22 42  1  0
 23 43  1  0
 23 44  1  0
 24 45  1  0
 24 46  1  0
M  END
>  <Energy>  (691) 
961.73143457891047

>  <compound_id>  (691) 
33779

>  <target_id>  (691) 
1

>  <reference_id>  (691) 
112

>  <inspiration_ids>  (691) 
[112, 93]

>  <energy_score>  (691) 
871.6906150314995

>  <distance_score>  (691) 
13.125513257824698

>  <path>  (691) 
/opt/xchem-fragalysis-2/maxwin/BulkDock/SCRATCH/511020/C33779-P112/C33779-P112.minimised.mol

>  <scratch_subdir>  (691) 
/opt/xchem-fragalysis-2/maxwin/BulkDock/SCRATCH/511020/C33779-P112

>  <fragmenstein_runtime>  (691) 
13.568284511566162

>  <fragmenstein_outcome>  (691) 
too moved

>  <fragmenstein_mode>  (691) 
expansion

>  <fragmenstein_error>  (691) 


$$$$
C33779-P93
     RDKit          3D

 46 49  0  0  0  0  0  0  0  0999 V2000
    3.0936   -5.5304    9.2667 O   0  0  0  0  0  0  0  0  0  0  0  0
    3.0473   -6.2898   10.2165 C   0  0  0  0  0  0  0  0  0  0  0  0
    4.6450   -6.6546   10.9292 C   0  0  0  0  0  0  0  0  0  0  0  0
    6.5942   -7.3157   10.7091 C   0  0  0  0  0  0  0  0  0  0  0  0
    7.8132   -6.8047   12.4219 C   0  0  0  0  0  0  0  0  0  0  0  0
    7.5254   -7.6060   13.3820 C   0  0  0  0  0  0  0  0  0  0  0  0
    8.5403   -6.6697   14.6360 N   0  0  0  0  0  0  0  0  0  0  0  0
    9.8010   -5.1295   14.4660 C   0  0  0  0  0  0  0  0  0  0  0  0
   10.9144   -4.2374   14.0226 C   0  0  0  0  0  0  0  0  0  0  0  0
   10.8315   -3.0144   14.6527 C   0  0  0  0  0  0  0  0  0  0  0  0
    9.5326   -2.6530   14.9321 C   0  0  0  0  0  0  0  0  0  0  0  0
    8.4660   -3.6481   14.6229 C   0  0  0  0  0  0  0  0  0  0  0  0
    8.5410   -5.4659   13.9748 C   0  0  0  0  0  0  0  0  0  0  0  0
    1.8125   -7.0812   10.8438 N   0  0  0  0  0  0  0  0  0  0  0  0
    0.4025   -7.1948   10.3849 C   0  0  0  0  0  0  0  0  0  0  0  0
   -0.0940   -6.5410    9.2676 C   0  0  0  0  0  0  0  0  0  0  0  0
   -1.1741   -7.2890    8.7653 C   0  0  0  0  0  0  0  0  0  0  0  0
   -1.4541   -8.3472    9.5023 N   0  0  0  0  0  0  0  0  0  0  0  0
   -0.6763   -8.2103   10.6127 N   0  0  0  0  0  0  0  0  0  0  0  0
   -1.2794   -8.9433   11.7579 C   0  0  0  0  0  0  0  0  0  0  0  0
   -1.3362  -10.4933   11.6250 C   0  0  0  0  0  0  0  0  0  0  0  0
   -2.7268  -10.8651   11.1075 C   0  0  0  0  0  0  0  0  0  0  0  0
   -3.6151   -9.9305   11.9013 C   0  0  0  0  0  0  0  0  0  0  0  0
   -2.8011   -8.6248   12.0186 C   0  0  0  0  0  0  0  0  0  0  0  0
    4.6867   -5.5822   11.1754 H   0  0  0  0  0  0  0  0  0  0  0  0
    4.2921   -6.9297   11.9361 H   0  0  0  0  0  0  0  0  0  0  0  0
    6.4109   -6.6605    9.7692 H   0  0  0  0  0  0  0  0  0  0  0  0
    7.4119   -7.4281    9.8978 H   0  0  0  0  0  0  0  0  0  0  0  0
    6.6481   -8.0597   13.8413 H   0  0  0  0  0  0  0  0  0  0  0  0
    7.9923   -6.5619   15.4843 H   0  0  0  0  0  0  0  0  0  0  0  0
   11.4490   -4.3194   13.0793 H   0  0  0  0  0  0  0  0  0  0  0  0
   11.5897   -2.2491   14.5289 H   0  0  0  0  0  0  0  0  0  0  0  0
    9.2602   -1.6177   15.1199 H   0  0  0  0  0  0  0  0  0  0  0  0
    7.5402   -3.0617   14.3777 H   0  0  0  0  0  0  0  0  0  0  0  0
    2.1420   -7.6915   11.5792 H   0  0  0  0  0  0  0  0  0  0  0  0
    0.3889   -5.7125    8.7658 H   0  0  0  0  0  0  0  0  0  0  0  0
   -1.7319   -7.1178    7.8536 H   0  0  0  0  0  0  0  0  0  0  0  0
   -0.7165   -8.6003   12.6149 H   0  0  0  0  0  0  0  0  0  0  0  0
   -1.2609  -10.9424   12.6190 H   0  0  0  0  0  0  0  0  0  0  0  0
   -0.5229  -10.8873   11.0247 H   0  0  0  0  0  0  0  0  0  0  0  0
   -2.9670  -11.9178   11.2807 H   0  0  0  0  0  0  0  0  0  0  0  0
   -2.8155  -10.6616   10.0364 H   0  0  0  0  0  0  0  0  0  0  0  0
   -3.7969  -10.3398   12.9022 H   0  0  0  0  0  0  0  0  0  0  0  0
   -4.5850   -9.7678   11.4224 H   0  0  0  0  0  0  0  0  0  0  0  0
   -2.9250   -8.2117   13.0270 H   0  0  0  0  0  0  0  0  0  0  0  0
   -3.1886   -7.8700   11.3257 H   0  0  0  0  0  0  0  0  0  0  0  0
  1  2  2  0
  2  3  1  0
  3  4  1  0
  4  5  1  0
  5  6  2  0
  6  7  1  0
  7  8  1  0
  8  9  2  0
  9 10  1  0
 10 11  2  0
 11 12  1  0
 12 13  2  0
  2 14  1  0
 14 15  1  0
 15 16  2  0
 16 17  1  0
 17 18  2  0
 18 19  1  0
 19 20  1  0
 20 21  1  0
 21 22  1  0
 22 23  1  0
 23 24  1  0
 13  5  1  0
 19 15  1  0
 24 20  1  0
 13  8  1  0
  3 25  1  0
  3 26  1  0
  4 27  1  0
  4 28  1  0
  6 29  1  0
  7 30  1  0
  9 31  1  0
 10 32  1  0
 11 33  1  0
 12 34  1  0
 14 35  1  0
 16 36  1  0
 17 37  1  0
 20 38  1  0
 21 39  1  0
 21 40  1  0
 22 41  1  0
 22 42  1  0
 23 43  1  0
 23 44  1  0
 24 45  1  0
 24 46  1  0
M  END
>  <Energy>  (692) 
1173.6958912777884

>  <compound_id>  (692) 
33779

>  <target_id>  (692) 
1

>  <reference_id>  (692) 
93

>  <inspiration_ids>  (692) 
[112, 93]

>  <energy_score>  (692) 
1083.6550717303744

>  <distance_score>  (692) 
16.266982426831177

>  <path>  (692) 
/opt/xchem-fragalysis-2/maxwin/BulkDock/SCRATCH/511020/C33779-P93/C33779-P93.minimised.mol

>  <scratch_subdir>  (692) 
/opt/xchem-fragalysis-2/maxwin/BulkDock/SCRATCH/511020/C33779-P93

>  <fragmenstein_runtime>  (692) 
15.047805786132812

>  <fragmenstein_outcome>  (692) 
too moved

>  <fragmenstein_mode>  (692) 
expansion

>  <fragmenstein_error>  (692) 


$$$$
C54275-P112
     RDKit          3D

 41 44  0  0  0  0  0  0  0  0999 V2000
   -6.4066  -17.2909   16.9161 O   0  0  0  0  0  0  0  0  0  0  0  0
   -5.4877  -18.2890   17.4103 S   0  0  0  0  0  0  0  0  0  0  0  0
   -4.5093  -18.9588   16.5861 O   0  0  0  0  0  0  0  0  0  0  0  0
   -4.4536  -17.5858   18.8854 N   0  0  0  0  0  0  0  0  0  0  0  0
   -3.6589  -16.2111   18.7976 C   0  0  0  0  0  0  0  0  0  0  0  0
   -4.3143  -15.0498   18.3658 C   0  0  0  0  0  0  0  0  0  0  0  0
   -3.7191  -13.7609   18.2966 C   0  0  0  0  0  0  0  0  0  0  0  0
   -2.4153  -13.5202   18.7138 C   0  0  0  0  0  0  0  0  0  0  0  0
   -1.7230  -14.5859   19.2993 C   0  0  0  0  0  0  0  0  0  0  0  0
   -0.3942  -14.6527   19.8228 C   0  0  0  0  0  0  0  0  0  0  0  0
   -0.2116  -15.9377   20.2560 C   0  0  0  0  0  0  0  0  0  0  0  0
   -1.3803  -16.6402   20.0334 N   0  0  0  0  0  0  0  0  0  0  0  0
   -2.3501  -15.8732   19.3910 C   0  0  0  0  0  0  0  0  0  0  0  0
   -6.6989  -19.7971   17.8748 C   0  0  0  0  0  0  0  0  0  0  0  0
   -6.8062  -20.2173   19.1987 C   0  0  0  0  0  0  0  0  0  0  0  0
   -6.1864  -21.4722   19.1155 C   0  0  0  0  0  0  0  0  0  0  0  0
   -6.0833  -21.9228   17.8634 N   0  0  0  0  0  0  0  0  0  0  0  0
   -7.1305  -21.1392   17.1200 N   0  0  0  0  0  0  0  0  0  0  0  0
   -7.8030  -22.1793   15.5139 C   0  0  0  0  0  0  0  0  0  0  0  0
   -9.3141  -22.3298   15.3354 C   0  0  0  0  0  0  0  0  0  0  0  0
   -9.6857  -23.0559   14.0688 C   0  0  0  0  0  0  0  0  0  0  0  0
   -8.8138  -22.4076   13.0668 C   0  0  0  0  0  0  0  0  0  0  0  0
   -7.5672  -21.8687   13.7877 C   0  0  0  0  0  0  0  0  0  0  0  0
   -3.7732  -18.3331   19.0408 H   0  0  0  0  0  0  0  0  0  0  0  0
   -5.3601  -15.1408   18.0731 H   0  0  0  0  0  0  0  0  0  0  0  0
   -4.3117  -12.9353   17.9060 H   0  0  0  0  0  0  0  0  0  0  0  0
   -1.9727  -12.5346   18.6268 H   0  0  0  0  0  0  0  0  0  0  0  0
    0.3332  -13.8526   19.8658 H   0  0  0  0  0  0  0  0  0  0  0  0
    0.6392  -16.4251   20.7137 H   0  0  0  0  0  0  0  0  0  0  0  0
   -1.5012  -17.6168   20.2569 H   0  0  0  0  0  0  0  0  0  0  0  0
   -6.7583  -19.5831   20.0741 H   0  0  0  0  0  0  0  0  0  0  0  0
   -5.7305  -22.0522   19.9084 H   0  0  0  0  0  0  0  0  0  0  0  0
   -7.4405  -23.1341   15.7696 H   0  0  0  0  0  0  0  0  0  0  0  0
   -9.6524  -22.9468   16.1092 H   0  0  0  0  0  0  0  0  0  0  0  0
   -9.7472  -21.3458   15.3144 H   0  0  0  0  0  0  0  0  0  0  0  0
  -10.7191  -23.0073   13.7337 H   0  0  0  0  0  0  0  0  0  0  0  0
   -9.4974  -24.1307   14.1721 H   0  0  0  0  0  0  0  0  0  0  0  0
   -8.5332  -23.2707   12.4782 H   0  0  0  0  0  0  0  0  0  0  0  0
   -9.3258  -21.6602   12.4655 H   0  0  0  0  0  0  0  0  0  0  0  0
   -6.8296  -22.4668   13.2571 H   0  0  0  0  0  0  0  0  0  0  0  0
   -7.1030  -20.9382   13.4786 H   0  0  0  0  0  0  0  0  0  0  0  0
  1  2  2  0
  2  3  2  0
  2  4  1  0
  4  5  1  0
  5  6  2  0
  6  7  1  0
  7  8  2  0
  8  9  1  0
  9 10  1  0
 10 11  2  0
 11 12  1  0
 12 13  1  0
  2 14  1  0
 14 15  2  0
 15 16  1  0
 16 17  2  0
 17 18  1  0
 18 19  1  0
 19 20  1  0
 20 21  1  0
 21 22  1  0
 22 23  1  0
 13  5  1  0
 18 14  1  0
 23 19  1  0
 13  9  2  0
  4 24  1  0
  6 25  1  0
  7 26  1  0
  8 27  1  0
 10 28  1  0
 11 29  1  0
 12 30  1  0
 15 31  1  0
 16 32  1  0
 19 33  1  0
 20 34  1  0
 20 35  1  0
 21 36  1  0
 21 37  1  0
 22 38  1  0
 22 39  1  0
 23 40  1  0
 23 41  1  0
M  END
>  <Energy>  (693) 
252.26878073896336

>  <compound_id>  (693) 
54275

>  <target_id>  (693) 
1

>  <reference_id>  (693) 
112

>  <inspiration_ids>  (693) 
[112, 93]

>  <energy_score>  (693) 
256.16189841545895

>  <distance_score>  (693) 
14.649909388938323

>  <path>  (693) 
/opt/xchem-fragalysis-2/maxwin/BulkDock/SCRATCH/511020/C54275-P112/C54275-P112.minimised.mol

>  <scratch_subdir>  (693) 
/opt/xchem-fragalysis-2/maxwin/BulkDock/SCRATCH/511020/C54275-P112

>  <fragmenstein_runtime>  (693) 
9.570750951766968

>  <fragmenstein_outcome>  (693) 
too moved

>  <fragmenstein_mode>  (693) 
expansion

>  <fragmenstein_error>  (693) 


$$$$
C54275-P93
     RDKit          3D

 41 44  0  0  0  0  0  0  0  0999 V2000
   -6.0052  -12.3788   12.9163 O   0  0  0  0  0  0  0  0  0  0  0  0
   -6.5951  -11.5221   11.9209 S   0  0  0  0  0  0  0  0  0  0  0  0
   -7.8171  -10.7995   12.1791 O   0  0  0  0  0  0  0  0  0  0  0  0
   -5.3222  -10.3025   11.2589 N   0  0  0  0  0  0  0  0  0  0  0  0
   -4.3956   -9.4274   12.1630 C   0  0  0  0  0  0  0  0  0  0  0  0
   -4.8494   -8.9009   13.3822 C   0  0  0  0  0  0  0  0  0  0  0  0
   -4.0625   -8.0643   14.2080 C   0  0  0  0  0  0  0  0  0  0  0  0
   -2.7730   -7.6630   13.8562 C   0  0  0  0  0  0  0  0  0  0  0  0
   -2.2586   -8.1007   12.6306 C   0  0  0  0  0  0  0  0  0  0  0  0
   -0.9955   -7.8648   12.0060 C   0  0  0  0  0  0  0  0  0  0  0  0
   -1.0032   -8.5684   10.8335 C   0  0  0  0  0  0  0  0  0  0  0  0
   -2.2328   -9.1818   10.7127 N   0  0  0  0  0  0  0  0  0  0  0  0
   -3.0577   -8.9373   11.8048 C   0  0  0  0  0  0  0  0  0  0  0  0
   -7.1298  -12.7293   10.6682 C   0  0  0  0  0  0  0  0  0  0  0  0
   -6.8971  -12.7890    9.2997 C   0  0  0  0  0  0  0  0  0  0  0  0
   -7.3005  -14.0668    8.8826 C   0  0  0  0  0  0  0  0  0  0  0  0
   -7.8315  -14.7676    9.8711 N   0  0  0  0  0  0  0  0  0  0  0  0
   -7.8059  -13.9275   10.9387 N   0  0  0  0  0  0  0  0  0  0  0  0
   -8.5998  -14.3413   12.1009 C   0  0  0  0  0  0  0  0  0  0  0  0
  -10.0934  -14.4245   11.7330 C   0  0  0  0  0  0  0  0  0  0  0  0
  -10.2646  -15.8296   11.1758 C   0  0  0  0  0  0  0  0  0  0  0  0
   -9.4288  -16.6741   12.1261 C   0  0  0  0  0  0  0  0  0  0  0  0
   -8.2808  -15.7697   12.5966 C   0  0  0  0  0  0  0  0  0  0  0  0
   -5.8794   -9.6641   10.6819 H   0  0  0  0  0  0  0  0  0  0  0  0
   -5.8512   -9.1537   13.7280 H   0  0  0  0  0  0  0  0  0  0  0  0
   -4.4870   -7.7132   15.1478 H   0  0  0  0  0  0  0  0  0  0  0  0
   -2.1947   -7.0182   14.5106 H   0  0  0  0  0  0  0  0  0  0  0  0
   -0.1784   -7.2692   12.3910 H   0  0  0  0  0  0  0  0  0  0  0  0
   -0.2522   -8.6891   10.0653 H   0  0  0  0  0  0  0  0  0  0  0  0
   -2.4966   -9.7817    9.9443 H   0  0  0  0  0  0  0  0  0  0  0  0
   -6.3960  -12.0404    8.7042 H   0  0  0  0  0  0  0  0  0  0  0  0
   -7.2181  -14.5164    7.9016 H   0  0  0  0  0  0  0  0  0  0  0  0
   -8.4287  -13.6009   12.8870 H   0  0  0  0  0  0  0  0  0  0  0  0
  -10.7036  -14.3096   12.6376 H   0  0  0  0  0  0  0  0  0  0  0  0
  -10.4048  -13.6591   11.0148 H   0  0  0  0  0  0  0  0  0  0  0  0
   -9.8858  -15.9178   10.1543 H   0  0  0  0  0  0  0  0  0  0  0  0
  -11.3120  -16.1054   11.1011 H   0  0  0  0  0  0  0  0  0  0  0  0
  -10.0271  -16.9733   12.9934 H   0  0  0  0  0  0  0  0  0  0  0  0
   -9.0521  -17.5817   11.6450 H   0  0  0  0  0  0  0  0  0  0  0  0
   -8.2413  -15.7858   13.6922 H   0  0  0  0  0  0  0  0  0  0  0  0
   -7.3118  -16.1324   12.2359 H   0  0  0  0  0  0  0  0  0  0  0  0
  1  2  2  0
  2  3  2  0
  2  4  1  0
  4  5  1  0
  5  6  2  0
  6  7  1  0
  7  8  2  0
  8  9  1  0
  9 10  1  0
 10 11  2  0
 11 12  1  0
 12 13  1  0
  2 14  1  0
 14 15  2  0
 15 16  1  0
 16 17  2  0
 17 18  1  0
 18 19  1  0
 19 20  1  0
 20 21  1  0
 21 22  1  0
 22 23  1  0
 13  5  1  0
 18 14  1  0
 23 19  1  0
 13  9  2  0
  4 24  1  0
  6 25  1  0
  7 26  1  0
  8 27  1  0
 10 28  1  0
 11 29  1  0
 12 30  1  0
 15 31  1  0
 16 32  1  0
 19 33  1  0
 20 34  1  0
 20 35  1  0
 21 36  1  0
 21 37  1  0
 22 38  1  0
 22 39  1  0
 23 40  1  0
 23 41  1  0
M  END
>  <Energy>  (694) 
-14.759032355407138

>  <compound_id>  (694) 
54275

>  <target_id>  (694) 
1

>  <reference_id>  (694) 
93

>  <inspiration_ids>  (694) 
[112, 93]

>  <energy_score>  (694) 
-10.865914678910286

>  <distance_score>  (694) 
15.01297879482744

>  <path>  (694) 
/opt/xchem-fragalysis-2/maxwin/BulkDock/SCRATCH/511020/C54275-P93/C54275-P93.minimised.mol

>  <scratch_subdir>  (694) 
/opt/xchem-fragalysis-2/maxwin/BulkDock/SCRATCH/511020/C54275-P93

>  <fragmenstein_runtime>  (694) 
14.272926568984985

>  <fragmenstein_outcome>  (694) 
too moved

>  <fragmenstein_mode>  (694) 
expansion

>  <fragmenstein_error>  (694) 


$$$$
C54276-P112
     RDKit          3D

 39 42  0  0  0  0  0  0  0  0999 V2000
    3.9003  -13.5117   20.4081 O   0  0  0  0  0  0  0  0  0  0  0  0
    4.3637  -13.1736   19.3363 C   0  0  0  0  0  0  0  0  0  0  0  0
    3.4442  -13.5693   18.0854 O   0  0  0  0  0  0  0  0  0  0  0  0
    1.8084  -14.3891   17.6894 C   0  0  0  0  0  0  0  0  0  0  0  0
   -0.1008  -13.9498   17.3887 C   0  0  0  0  0  0  0  0  0  0  0  0
   -1.1132  -12.8373   17.5786 C   0  0  0  0  0  0  0  0  0  0  0  0
   -2.4610  -13.1489   17.5751 C   0  0  0  0  0  0  0  0  0  0  0  0
   -2.5846  -14.4533   17.1929 N   0  0  0  0  0  0  0  0  0  0  0  0
   -3.8339  -15.8148   16.8904 C   0  0  0  0  0  0  0  0  0  0  0  0
   -5.6288  -16.0442   17.0073 C   0  0  0  0  0  0  0  0  0  0  0  0
   -5.9057  -17.3000   17.8159 C   0  0  0  0  0  0  0  0  0  0  0  0
   -5.0245  -18.2572   17.0913 C   0  0  0  0  0  0  0  0  0  0  0  0
   -3.7821  -17.4362   16.6729 C   0  0  0  0  0  0  0  0  0  0  0  0
   -1.1445  -14.7469   17.8791 N   0  0  0  0  0  0  0  0  0  0  0  0
    5.7779  -12.2654   19.5567 C   0  0  0  0  0  0  0  0  0  0  0  0
    6.6952  -12.4479   20.6016 C   0  0  0  0  0  0  0  0  0  0  0  0
    7.7394  -11.5251   20.7971 C   0  0  0  0  0  0  0  0  0  0  0  0
    9.1301  -11.2111   21.7682 S   0  0  0  0  0  0  0  0  0  0  0  0
    9.3830   -9.7590   20.9009 C   0  0  0  0  0  0  0  0  0  0  0  0
    8.5115   -9.6207   19.8515 C   0  0  0  0  0  0  0  0  0  0  0  0
    7.5873  -10.6731   19.7938 C   0  0  0  0  0  0  0  0  0  0  0  0
    6.3873  -11.0502   19.0900 N   0  0  0  0  0  0  0  0  0  0  0  0
    1.9293  -15.3331   18.2496 H   0  0  0  0  0  0  0  0  0  0  0  0
    2.0891  -14.7282   16.7013 H   0  0  0  0  0  0  0  0  0  0  0  0
   -0.9661  -11.8696   18.0410 H   0  0  0  0  0  0  0  0  0  0  0  0
   -3.1455  -12.4395   18.0149 H   0  0  0  0  0  0  0  0  0  0  0  0
   -3.5897  -15.6555   15.8712 H   0  0  0  0  0  0  0  0  0  0  0  0
   -6.2615  -15.2076   17.3455 H   0  0  0  0  0  0  0  0  0  0  0  0
   -5.9926  -16.3255   16.0089 H   0  0  0  0  0  0  0  0  0  0  0  0
   -6.9577  -17.5972   17.7774 H   0  0  0  0  0  0  0  0  0  0  0  0
   -5.6097  -17.1970   18.8638 H   0  0  0  0  0  0  0  0  0  0  0  0
   -4.7719  -19.1291   17.7017 H   0  0  0  0  0  0  0  0  0  0  0  0
   -5.5268  -18.6431   16.1948 H   0  0  0  0  0  0  0  0  0  0  0  0
   -3.6833  -17.6489   15.5947 H   0  0  0  0  0  0  0  0  0  0  0  0
   -2.9699  -17.8668   17.1828 H   0  0  0  0  0  0  0  0  0  0  0  0
    6.7039  -13.3902   21.0206 H   0  0  0  0  0  0  0  0  0  0  0  0
   10.1564   -9.0750   21.2174 H   0  0  0  0  0  0  0  0  0  0  0  0
    8.4559   -8.7958   19.2052 H   0  0  0  0  0  0  0  0  0  0  0  0
    5.9850  -10.3653   18.4710 H   0  0  0  0  0  0  0  0  0  0  0  0
  1  2  2  0
  2  3  1  0
  3  4  1  0
  4  5  1  0
  5  6  1  0
  6  7  2  0
  7  8  1  0
  8  9  1  0
  9 10  1  0
 10 11  1  0
 11 12  1  0
 12 13  1  0
  8 14  1  0
  2 15  1  0
 15 16  2  0
 16 17  1  0
 17 18  1  0
 18 19  1  0
 19 20  2  0
 20 21  1  0
 21 22  1  0
 14  5  2  0
 22 15  1  0
 13  9  1  0
 21 17  2  0
  4 23  1  0
  4 24  1  0
  6 25  1  0
  7 26  1  0
  9 27  1  0
 10 28  1  0
 10 29  1  0
 11 30  1  0
 11 31  1  0
 12 32  1  0
 12 33  1  0
 13 34  1  0
 13 35  1  0
 16 36  1  0
 19 37  1  0
 20 38  1  0
 22 39  1  0
M  END
>  <Energy>  (695) 
524.46940585038988

>  <compound_id>  (695) 
54276

>  <target_id>  (695) 
1

>  <reference_id>  (695) 
112

>  <inspiration_ids>  (695) 
[112, 93]

>  <energy_score>  (695) 
456.2565478312878

>  <distance_score>  (695) 
13.426780198840005

>  <path>  (695) 
/opt/xchem-fragalysis-2/maxwin/BulkDock/SCRATCH/511020/C54276-P112/C54276-P112.minimised.mol

>  <scratch_subdir>  (695) 
/opt/xchem-fragalysis-2/maxwin/BulkDock/SCRATCH/511020/C54276-P112

>  <fragmenstein_runtime>  (695) 
13.03792691230774

>  <fragmenstein_outcome>  (695) 
too moved

>  <fragmenstein_mode>  (695) 
expansion

>  <fragmenstein_error>  (695) 


$$$$
C54276-P93
     RDKit          3D

 39 42  0  0  0  0  0  0  0  0999 V2000
    4.8037  -15.9683   18.6101 O   0  0  0  0  0  0  0  0  0  0  0  0
    3.8278  -15.2830   18.3168 C   0  0  0  0  0  0  0  0  0  0  0  0
    2.5085  -16.3148   17.7797 O   0  0  0  0  0  0  0  0  0  0  0  0
    1.4042  -17.9960   17.6050 C   0  0  0  0  0  0  0  0  0  0  0  0
   -0.5770  -18.6715   17.6732 C   0  0  0  0  0  0  0  0  0  0  0  0
   -1.3005  -20.1389   17.5012 C   0  0  0  0  0  0  0  0  0  0  0  0
   -2.6433  -20.0995   17.6359 C   0  0  0  0  0  0  0  0  0  0  0  0
   -2.8557  -18.8826   18.1520 N   0  0  0  0  0  0  0  0  0  0  0  0
   -4.2169  -18.3910   18.3989 C   0  0  0  0  0  0  0  0  0  0  0  0
   -5.1979  -19.4001   19.0645 C   0  0  0  0  0  0  0  0  0  0  0  0
   -6.2632  -19.7333   18.0186 C   0  0  0  0  0  0  0  0  0  0  0  0
   -6.3892  -18.4416   17.2372 C   0  0  0  0  0  0  0  0  0  0  0  0
   -4.9440  -17.9691   17.0993 C   0  0  0  0  0  0  0  0  0  0  0  0
   -1.6731  -18.1107   18.4179 N   0  0  0  0  0  0  0  0  0  0  0  0
    4.1465  -13.6431   18.6971 C   0  0  0  0  0  0  0  0  0  0  0  0
    5.5787  -13.6529   19.6040 C   0  0  0  0  0  0  0  0  0  0  0  0
    6.2731  -12.4807   20.3232 C   0  0  0  0  0  0  0  0  0  0  0  0
    7.6615  -11.7686   21.1663 S   0  0  0  0  0  0  0  0  0  0  0  0
    7.8422  -10.5937   19.8859 C   0  0  0  0  0  0  0  0  0  0  0  0
    6.7171  -10.6114   19.0216 C   0  0  0  0  0  0  0  0  0  0  0  0
    5.7598  -11.7642   19.4250 C   0  0  0  0  0  0  0  0  0  0  0  0
    4.4882  -12.5847   19.5875 N   0  0  0  0  0  0  0  0  0  0  0  0
    1.9969  -18.7862   18.0476 H   0  0  0  0  0  0  0  0  0  0  0  0
    1.7069  -18.1818   16.5643 H   0  0  0  0  0  0  0  0  0  0  0  0
   -0.7925  -21.1026   17.3618 H   0  0  0  0  0  0  0  0  0  0  0  0
   -3.4057  -20.8531   17.4989 H   0  0  0  0  0  0  0  0  0  0  0  0
   -4.0688  -17.5515   19.0772 H   0  0  0  0  0  0  0  0  0  0  0  0
   -4.7153  -20.2983   19.4616 H   0  0  0  0  0  0  0  0  0  0  0  0
   -5.6855  -18.8994   19.9113 H   0  0  0  0  0  0  0  0  0  0  0  0
   -5.9073  -20.5408   17.3749 H   0  0  0  0  0  0  0  0  0  0  0  0
   -7.2085  -20.0440   18.4720 H   0  0  0  0  0  0  0  0  0  0  0  0
   -6.8639  -18.5774   16.2647 H   0  0  0  0  0  0  0  0  0  0  0  0
   -6.9717  -17.7071   17.8057 H   0  0  0  0  0  0  0  0  0  0  0  0
   -4.4906  -18.4380   16.2173 H   0  0  0  0  0  0  0  0  0  0  0  0
   -4.8929  -16.8865   16.9489 H   0  0  0  0  0  0  0  0  0  0  0  0
    5.9486  -14.6259   19.6847 H   0  0  0  0  0  0  0  0  0  0  0  0
    8.6342   -9.8577   19.9259 H   0  0  0  0  0  0  0  0  0  0  0  0
    6.4632   -9.7565   18.4425 H   0  0  0  0  0  0  0  0  0  0  0  0
    4.0570  -12.5925   20.5176 H   0  0  0  0  0  0  0  0  0  0  0  0
  1  2  2  0
  2  3  1  0
  3  4  1  0
  4  5  1  0
  5  6  1  0
  6  7  2  0
  7  8  1  0
  8  9  1  0
  9 10  1  0
 10 11  1  0
 11 12  1  0
 12 13  1  0
  8 14  1  0
  2 15  1  0
 15 16  2  0
 16 17  1  0
 17 18  1  0
 18 19  1  0
 19 20  2  0
 20 21  1  0
 21 22  1  0
 14  5  2  0
 22 15  1  0
 13  9  1  0
 21 17  2  0
  4 23  1  0
  4 24  1  0
  6 25  1  0
  7 26  1  0
  9 27  1  0
 10 28  1  0
 10 29  1  0
 11 30  1  0
 11 31  1  0
 12 32  1  0
 12 33  1  0
 13 34  1  0
 13 35  1  0
 16 36  1  0
 19 37  1  0
 20 38  1  0
 22 39  1  0
M  END
>  <Energy>  (696) 
668.21480088477801

>  <compound_id>  (696) 
54276

>  <target_id>  (696) 
1

>  <reference_id>  (696) 
93

>  <inspiration_ids>  (696) 
[112, 93]

>  <energy_score>  (696) 
600.0019428656772

>  <distance_score>  (696) 
12.458554066532496

>  <path>  (696) 
/opt/xchem-fragalysis-2/maxwin/BulkDock/SCRATCH/511020/C54276-P93/C54276-P93.minimised.mol

>  <scratch_subdir>  (696) 
/opt/xchem-fragalysis-2/maxwin/BulkDock/SCRATCH/511020/C54276-P93

>  <fragmenstein_runtime>  (696) 
9.112082481384277

>  <fragmenstein_outcome>  (696) 
too moved

>  <fragmenstein_mode>  (696) 
expansion

>  <fragmenstein_error>  (696) 


$$$$
C54277-P112
     RDKit          3D

 42 45  0  0  0  0  0  0  0  0999 V2000
    3.8686  -13.5707   20.4492 O   0  0  0  0  0  0  0  0  0  0  0  0
    4.3366  -13.1810   19.3914 C   0  0  0  0  0  0  0  0  0  0  0  0
    3.3529  -13.5788   18.0838 O   0  0  0  0  0  0  0  0  0  0  0  0
    1.6408  -14.2930   17.6493 C   0  0  0  0  0  0  0  0  0  0  0  0
   -0.2904  -13.7979   17.4518 C   0  0  0  0  0  0  0  0  0  0  0  0
   -1.3077  -12.5094   17.7935 C   0  0  0  0  0  0  0  0  0  0  0  0
   -2.6494  -12.8069   17.8988 C   0  0  0  0  0  0  0  0  0  0  0  0
   -2.6826  -14.1199   17.6365 N   0  0  0  0  0  0  0  0  0  0  0  0
   -3.9996  -14.8127   17.5070 C   0  0  0  0  0  0  0  0  0  0  0  0
   -4.6618  -14.8999   16.0924 C   0  0  0  0  0  0  0  0  0  0  0  0
   -5.6636  -16.0708   16.1015 C   0  0  0  0  0  0  0  0  0  0  0  0
   -5.7102  -16.5280   17.5465 C   0  0  0  0  0  0  0  0  0  0  0  0
   -4.2997  -16.2021   18.0462 C   0  0  0  0  0  0  0  0  0  0  0  0
   -1.3783  -14.6203   17.8611 N   0  0  0  0  0  0  0  0  0  0  0  0
    5.7633  -12.2445   19.6856 C   0  0  0  0  0  0  0  0  0  0  0  0
    6.3255  -10.9201   19.4518 C   0  0  0  0  0  0  0  0  0  0  0  0
    7.4133  -10.5332   20.2798 C   0  0  0  0  0  0  0  0  0  0  0  0
    8.1821   -9.3669   20.4210 C   0  0  0  0  0  0  0  0  0  0  0  0
    9.2866   -9.3700   21.2659 C   0  0  0  0  0  0  0  0  0  0  0  0
    9.6022  -10.5276   21.9683 C   0  0  0  0  0  0  0  0  0  0  0  0
    8.7998  -11.6812   21.8793 C   0  0  0  0  0  0  0  0  0  0  0  0
    7.6815  -11.6363   21.0358 C   0  0  0  0  0  0  0  0  0  0  0  0
    6.6992  -12.5721   20.7143 N   0  0  0  0  0  0  0  0  0  0  0  0
    1.8318  -14.3989   16.5975 H   0  0  0  0  0  0  0  0  0  0  0  0
    1.7754  -15.3243   18.0241 H   0  0  0  0  0  0  0  0  0  0  0  0
   -1.0391  -11.5370   18.1578 H   0  0  0  0  0  0  0  0  0  0  0  0
   -3.5112  -12.2008   18.1362 H   0  0  0  0  0  0  0  0  0  0  0  0
   -4.6655  -14.1546   18.0901 H   0  0  0  0  0  0  0  0  0  0  0  0
   -3.9256  -15.0563   15.3022 H   0  0  0  0  0  0  0  0  0  0  0  0
   -5.1967  -13.9696   15.8706 H   0  0  0  0  0  0  0  0  0  0  0  0
   -5.2894  -16.8769   15.4595 H   0  0  0  0  0  0  0  0  0  0  0  0
   -6.6488  -15.7752   15.7289 H   0  0  0  0  0  0  0  0  0  0  0  0
   -5.9505  -17.5908   17.6409 H   0  0  0  0  0  0  0  0  0  0  0  0
   -6.4546  -15.9517   18.1078 H   0  0  0  0  0  0  0  0  0  0  0  0
   -3.6264  -16.9138   17.5783 H   0  0  0  0  0  0  0  0  0  0  0  0
   -4.2416  -16.2355   19.1361 H   0  0  0  0  0  0  0  0  0  0  0  0
    5.9998  -10.1505   18.7781 H   0  0  0  0  0  0  0  0  0  0  0  0
    7.8893   -8.4787   19.8886 H   0  0  0  0  0  0  0  0  0  0  0  0
    9.8867   -8.4727   21.3807 H   0  0  0  0  0  0  0  0  0  0  0  0
   10.4703  -10.5358   22.6242 H   0  0  0  0  0  0  0  0  0  0  0  0
    9.0401  -12.5686   22.4554 H   0  0  0  0  0  0  0  0  0  0  0  0
    6.8338  -13.5421   20.9201 H   0  0  0  0  0  0  0  0  0  0  0  0
  1  2  2  0
  2  3  1  0
  3  4  1  0
  4  5  1  0
  5  6  1  0
  6  7  2  0
  7  8  1  0
  8  9  1  0
  9 10  1  0
 10 11  1  0
 11 12  1  0
 12 13  1  0
  8 14  1  0
  2 15  1  0
 15 16  2  0
 16 17  1  0
 17 18  2  0
 18 19  1  0
 19 20  2  0
 20 21  1  0
 21 22  2  0
 22 23  1  0
 14  5  2  0
 23 15  1  0
 13  9  1  0
 22 17  1  0
  4 24  1  0
  4 25  1  0
  6 26  1  0
  7 27  1  0
  9 28  1  0
 10 29  1  0
 10 30  1  0
 11 31  1  0
 11 32  1  0
 12 33  1  0
 12 34  1  0
 13 35  1  0
 13 36  1  0
 16 37  1  0
 18 38  1  0
 19 39  1  0
 20 40  1  0
 21 41  1  0
 23 42  1  0
M  END
>  <Energy>  (697) 
379.17402082966748

>  <compound_id>  (697) 
54277

>  <target_id>  (697) 
1

>  <reference_id>  (697) 
112

>  <inspiration_ids>  (697) 
[112, 93]

>  <energy_score>  (697) 
323.6716411859025

>  <distance_score>  (697) 
13.52761872567584

>  <path>  (697) 
/opt/xchem-fragalysis-2/maxwin/BulkDock/SCRATCH/511020/C54277-P112/C54277-P112.minimised.mol

>  <scratch_subdir>  (697) 
/opt/xchem-fragalysis-2/maxwin/BulkDock/SCRATCH/511020/C54277-P112

>  <fragmenstein_runtime>  (697) 
14.003768682479858

>  <fragmenstein_outcome>  (697) 
too moved

>  <fragmenstein_mode>  (697) 
expansion

>  <fragmenstein_error>  (697) 


$$$$
C54277-P93
     RDKit          3D

 42 45  0  0  0  0  0  0  0  0999 V2000
    0.5413  -13.6730    9.2692 O   0  0  0  0  0  0  0  0  0  0  0  0
    0.0831  -12.7771    9.9760 C   0  0  0  0  0  0  0  0  0  0  0  0
   -1.2312  -12.8791   10.4967 O   0  0  0  0  0  0  0  0  0  0  0  0
   -1.8775  -14.2031   10.1053 C   0  0  0  0  0  0  0  0  0  0  0  0
   -3.3196  -14.6581   10.5779 C   0  0  0  0  0  0  0  0  0  0  0  0
   -4.2205  -14.0439   11.4831 C   0  0  0  0  0  0  0  0  0  0  0  0
   -5.3256  -14.8680   11.5684 C   0  0  0  0  0  0  0  0  0  0  0  0
   -5.0842  -15.9349   10.7513 N   0  0  0  0  0  0  0  0  0  0  0  0
   -5.9900  -17.0479   10.4541 C   0  0  0  0  0  0  0  0  0  0  0  0
   -7.1316  -16.6810    9.4958 C   0  0  0  0  0  0  0  0  0  0  0  0
   -8.1187  -17.8330    9.6252 C   0  0  0  0  0  0  0  0  0  0  0  0
   -8.0847  -18.1888   11.1008 C   0  0  0  0  0  0  0  0  0  0  0  0
   -6.7444  -17.6694   11.6484 C   0  0  0  0  0  0  0  0  0  0  0  0
   -3.8704  -15.8261   10.1295 N   0  0  0  0  0  0  0  0  0  0  0  0
    0.9317  -11.5698   10.2980 C   0  0  0  0  0  0  0  0  0  0  0  0
    2.3212  -11.4694   10.0534 C   0  0  0  0  0  0  0  0  0  0  0  0
    2.8514  -10.2152   10.4923 C   0  0  0  0  0  0  0  0  0  0  0  0
    4.1434   -9.6276   10.5492 C   0  0  0  0  0  0  0  0  0  0  0  0
    4.3034   -8.3203   11.0287 C   0  0  0  0  0  0  0  0  0  0  0  0
    3.1886   -7.5910   11.4249 C   0  0  0  0  0  0  0  0  0  0  0  0
    1.9010   -8.1551   11.3764 C   0  0  0  0  0  0  0  0  0  0  0  0
    1.7543   -9.4872   10.9312 C   0  0  0  0  0  0  0  0  0  0  0  0
    0.6305  -10.3254   10.8451 N   0  0  0  0  0  0  0  0  0  0  0  0
   -1.9167  -14.2003    9.0081 H   0  0  0  0  0  0  0  0  0  0  0  0
   -1.1919  -14.9921   10.4392 H   0  0  0  0  0  0  0  0  0  0  0  0
   -4.0669  -13.1177   12.0157 H   0  0  0  0  0  0  0  0  0  0  0  0
   -6.2398  -14.7702   12.1344 H   0  0  0  0  0  0  0  0  0  0  0  0
   -5.3727  -17.8310    9.9927 H   0  0  0  0  0  0  0  0  0  0  0  0
   -6.7792  -16.5577    8.4667 H   0  0  0  0  0  0  0  0  0  0  0  0
   -7.6101  -15.7407    9.7973 H   0  0  0  0  0  0  0  0  0  0  0  0
   -9.1225  -17.5597    9.2866 H   0  0  0  0  0  0  0  0  0  0  0  0
   -7.7825  -18.6800    9.0199 H   0  0  0  0  0  0  0  0  0  0  0  0
   -8.2014  -19.2661   11.2485 H   0  0  0  0  0  0  0  0  0  0  0  0
   -8.9089  -17.6888   11.6214 H   0  0  0  0  0  0  0  0  0  0  0  0
   -6.9403  -16.9408   12.4422 H   0  0  0  0  0  0  0  0  0  0  0  0
   -6.1557  -18.4709   12.1049 H   0  0  0  0  0  0  0  0  0  0  0  0
    2.9040  -12.2751    9.6213 H   0  0  0  0  0  0  0  0  0  0  0  0
    5.0097  -10.1950   10.2200 H   0  0  0  0  0  0  0  0  0  0  0  0
    5.2950   -7.8777   11.0717 H   0  0  0  0  0  0  0  0  0  0  0  0
    3.3071   -6.5682   11.7728 H   0  0  0  0  0  0  0  0  0  0  0  0
    1.0397   -7.5793   11.7012 H   0  0  0  0  0  0  0  0  0  0  0  0
   -0.2982  -10.0492   11.1284 H   0  0  0  0  0  0  0  0  0  0  0  0
  1  2  2  0
  2  3  1  0
  3  4  1  0
  4  5  1  0
  5  6  1  0
  6  7  2  0
  7  8  1  0
  8  9  1  0
  9 10  1  0
 10 11  1  0
 11 12  1  0
 12 13  1  0
  8 14  1  0
  2 15  1  0
 15 16  2  0
 16 17  1  0
 17 18  2  0
 18 19  1  0
 19 20  2  0
 20 21  1  0
 21 22  2  0
 22 23  1  0
 14  5  2  0
 23 15  1  0
 13  9  1  0
 22 17  1  0
  4 24  1  0
  4 25  1  0
  6 26  1  0
  7 27  1  0
  9 28  1  0
 10 29  1  0
 10 30  1  0
 11 31  1  0
 11 32  1  0
 12 33  1  0
 12 34  1  0
 13 35  1  0
 13 36  1  0
 16 37  1  0
 18 38  1  0
 19 39  1  0
 20 40  1  0
 21 41  1  0
 23 42  1  0
M  END
>  <Energy>  (698) 
49.491957071864817

>  <compound_id>  (698) 
54277

>  <target_id>  (698) 
1

>  <reference_id>  (698) 
93

>  <inspiration_ids>  (698) 
[112, 93]

>  <energy_score>  (698) 
-6.010422571898573

>  <distance_score>  (698) 
13.203638445407032

>  <path>  (698) 
/opt/xchem-fragalysis-2/maxwin/BulkDock/SCRATCH/511020/C54277-P93/C54277-P93.minimised.mol

>  <scratch_subdir>  (698) 
/opt/xchem-fragalysis-2/maxwin/BulkDock/SCRATCH/511020/C54277-P93

>  <fragmenstein_runtime>  (698) 
16.49547553062439

>  <fragmenstein_outcome>  (698) 
too moved

>  <fragmenstein_mode>  (698) 
expansion

>  <fragmenstein_error>  (698) 


$$$$
C48388-P95
     RDKit          3D

 46 47  0  0  0  0  0  0  0  0999 V2000
   -4.5706   -7.8310   -1.7746 C   0  0  0  0  0  0  0  0  0  0  0  0
   -6.0381   -6.8722   -1.3239 S   0  0  0  0  0  0  0  0  0  0  0  0
   -5.8990   -6.9249    0.4945 C   0  0  0  0  0  0  0  0  0  0  0  0
   -4.7428   -6.0812    1.0314 C   0  0  0  0  0  0  0  0  0  0  0  0
   -4.5797   -6.2301    2.5887 C   0  0  0  0  0  0  0  0  0  0  0  0
   -5.0929   -4.9979    3.1959 N   0  0  0  0  0  0  0  0  0  0  0  0
   -6.3827   -4.3900    3.1333 C   0  0  0  0  0  0  0  0  0  0  0  0
   -7.3582   -4.6859    2.5049 O   0  0  0  0  0  0  0  0  0  0  0  0
   -6.4871   -3.2664    4.1072 C   0  0  0  0  0  0  0  0  0  0  0  0
   -6.7221   -3.5507    5.4020 C   0  0  0  0  0  0  0  0  0  0  0  0
   -6.9513   -2.4592    6.4069 C   0  0  0  0  0  0  0  0  0  0  0  0
   -7.1886   -1.0931    5.7460 C   0  0  0  0  0  0  0  0  0  0  0  0
   -6.2546   -0.8632    4.6369 N   0  0  0  0  0  0  0  0  0  0  0  0
   -6.4486   -1.8663    3.5777 C   0  0  0  0  0  0  0  0  0  0  0  0
   -3.0702   -6.8996    2.7537 C   0  0  0  0  0  0  0  0  0  0  0  0
   -2.0553   -6.3440    2.9918 O   0  0  0  0  0  0  0  0  0  0  0  0
   -3.3285   -8.2613    2.4334 N   0  0  0  0  0  0  0  0  0  0  0  0
   -2.0430   -9.7814    2.0527 C   0  0  0  0  0  0  0  0  0  0  0  0
   -0.9405  -10.8985    3.4255 C   0  0  0  0  0  0  0  0  0  0  0  0
   -2.2603  -10.5214    5.2463 C   0  0  0  0  0  0  0  0  0  0  0  0
   -3.7585   -9.2767    4.1928 C   0  0  0  0  0  0  0  0  0  0  0  0
   -4.5921   -8.0274   -2.8500 H   0  0  0  0  0  0  0  0  0  0  0  0
   -3.6575   -7.2753   -1.5494 H   0  0  0  0  0  0  0  0  0  0  0  0
   -4.5611   -8.7897   -1.2492 H   0  0  0  0  0  0  0  0  0  0  0  0
   -5.8065   -7.9706    0.7959 H   0  0  0  0  0  0  0  0  0  0  0  0
   -6.8485   -6.5616    0.8952 H   0  0  0  0  0  0  0  0  0  0  0  0
   -4.9025   -5.0291    0.7604 H   0  0  0  0  0  0  0  0  0  0  0  0
   -3.8134   -6.3735    0.5300 H   0  0  0  0  0  0  0  0  0  0  0  0
   -5.2954   -6.9986    2.9024 H   0  0  0  0  0  0  0  0  0  0  0  0
   -4.5389   -4.5238    3.9000 H   0  0  0  0  0  0  0  0  0  0  0  0
   -6.7987   -4.5733    5.7542 H   0  0  0  0  0  0  0  0  0  0  0  0
   -7.8150   -2.7116    7.0323 H   0  0  0  0  0  0  0  0  0  0  0  0
   -6.0739   -2.4070    7.0622 H   0  0  0  0  0  0  0  0  0  0  0  0
   -7.0582   -0.3056    6.4965 H   0  0  0  0  0  0  0  0  0  0  0  0
   -8.2224   -1.0192    5.3843 H   0  0  0  0  0  0  0  0  0  0  0  0
   -6.4122    0.0662    4.2506 H   0  0  0  0  0  0  0  0  0  0  0  0
   -7.3753   -1.6559    3.0301 H   0  0  0  0  0  0  0  0  0  0  0  0
   -5.6194   -1.7665    2.8685 H   0  0  0  0  0  0  0  0  0  0  0  0
   -1.5249   -9.0044    1.4362 H   0  0  0  0  0  0  0  0  0  0  0  0
   -2.3345  -10.4743    1.2282 H   0  0  0  0  0  0  0  0  0  0  0  0
    0.0372  -11.3645    3.6935 H   0  0  0  0  0  0  0  0  0  0  0  0
   -1.1045  -11.7266    2.6506 H   0  0  0  0  0  0  0  0  0  0  0  0
   -1.6864  -10.3523    6.1791 H   0  0  0  0  0  0  0  0  0  0  0  0
   -2.9565  -11.3373    5.5671 H   0  0  0  0  0  0  0  0  0  0  0  0
   -4.8136   -8.9905    4.4848 H   0  0  0  0  0  0  0  0  0  0  0  0
   -3.5749   -8.2820    4.5332 H   0  0  0  0  0  0  0  0  0  0  0  0
  1  2  1  0
  2  3  1  0
  3  4  1  0
  4  5  1  0
  5  6  1  0
  6  7  1  0
  7  8  2  0
  7  9  1  0
  9 10  2  0
 10 11  1  0
 11 12  1  0
 12 13  1  0
 13 14  1  0
  5 15  1  0
 15 16  2  0
 15 17  1  0
 17 18  1  0
 18 19  1  0
 19 20  1  0
 20 21  1  0
 14  9  1  0
 21 17  1  0
  1 22  1  0
  1 23  1  0
  1 24  1  0
  3 25  1  0
  3 26  1  0
  4 27  1  0
  4 28  1  0
  5 29  1  0
  6 30  1  0
 10 31  1  0
 11 32  1  0
 11 33  1  0
 12 34  1  0
 12 35  1  0
 13 36  1  0
 14 37  1  0
 14 38  1  0
 18 39  1  0
 18 40  1  0
 19 41  1  0
 19 42  1  0
 20 43  1  0
 20 44  1  0
 21 45  1  0
 21 46  1  0
M  END
>  <Energy>  (699) 
695.99465692972774

>  <compound_id>  (699) 
48388

>  <target_id>  (699) 
1

>  <reference_id>  (699) 
95

>  <inspiration_ids>  (699) 
[95, 85]

>  <energy_score>  (699) 
607.3592298938504

>  <distance_score>  (699) 
7.644309090900748

>  <path>  (699) 
/opt/xchem-fragalysis-2/maxwin/BulkDock/SCRATCH/511020/C48388-P95/C48388-P95.minimised.mol

>  <scratch_subdir>  (699) 
/opt/xchem-fragalysis-2/maxwin/BulkDock/SCRATCH/511020/C48388-P95

>  <fragmenstein_runtime>  (699) 
13.317759990692139

>  <fragmenstein_outcome>  (699) 
too moved

>  <fragmenstein_mode>  (699) 
expansion

>  <fragmenstein_error>  (699) 


$$$$
C48388-P85
     RDKit          3D

 46 47  0  0  0  0  0  0  0  0999 V2000
   -5.8733   -5.1928    0.9435 C   0  0  0  0  0  0  0  0  0  0  0  0
   -4.6188   -6.4890    1.0878 S   0  0  0  0  0  0  0  0  0  0  0  0
   -4.8356   -6.8834    2.8794 C   0  0  0  0  0  0  0  0  0  0  0  0
   -3.6901   -7.7961    3.4330 C   0  0  0  0  0  0  0  0  0  0  0  0
   -3.9444   -9.0742    4.9098 C   0  0  0  0  0  0  0  0  0  0  0  0
   -5.8761   -8.1928    5.2766 N   0  0  0  0  0  0  0  0  0  0  0  0
   -6.5020   -6.3832    6.0856 C   0  0  0  0  0  0  0  0  0  0  0  0
   -5.7189   -5.5910    6.4953 O   0  0  0  0  0  0  0  0  0  0  0  0
   -8.1032   -5.6494    6.2774 C   0  0  0  0  0  0  0  0  0  0  0  0
   -9.2828   -5.0200    6.4415 C   0  0  0  0  0  0  0  0  0  0  0  0
   -9.5958   -3.5413    6.6434 C   0  0  0  0  0  0  0  0  0  0  0  0
   -8.4268   -2.8448    7.3308 C   0  0  0  0  0  0  0  0  0  0  0  0
   -7.1768   -3.0768    6.6107 N   0  0  0  0  0  0  0  0  0  0  0  0
   -7.3679   -4.1583    5.6404 C   0  0  0  0  0  0  0  0  0  0  0  0
   -2.3785  -10.4653    6.0304 C   0  0  0  0  0  0  0  0  0  0  0  0
   -2.6353  -10.4428    7.2227 O   0  0  0  0  0  0  0  0  0  0  0  0
   -0.6345  -11.4273    5.7316 N   0  0  0  0  0  0  0  0  0  0  0  0
    0.4510  -11.9967    6.6967 C   0  0  0  0  0  0  0  0  0  0  0  0
    1.7667  -12.3965    5.9843 C   0  0  0  0  0  0  0  0  0  0  0  0
    1.0544  -13.6024    5.5520 C   0  0  0  0  0  0  0  0  0  0  0  0
   -0.3586  -12.8346    5.4822 C   0  0  0  0  0  0  0  0  0  0  0  0
   -5.9124   -4.8413   -0.0908 H   0  0  0  0  0  0  0  0  0  0  0  0
   -5.6228   -4.3470    1.5888 H   0  0  0  0  0  0  0  0  0  0  0  0
   -6.8567   -5.5852    1.2158 H   0  0  0  0  0  0  0  0  0  0  0  0
   -4.8463   -5.9050    3.3603 H   0  0  0  0  0  0  0  0  0  0  0  0
   -5.8023   -7.3694    2.9401 H   0  0  0  0  0  0  0  0  0  0  0  0
   -3.3559   -8.1756    2.4704 H   0  0  0  0  0  0  0  0  0  0  0  0
   -2.7786   -7.2000    3.6422 H   0  0  0  0  0  0  0  0  0  0  0  0
   -3.7678   -8.2160    5.3554 H   0  0  0  0  0  0  0  0  0  0  0  0
   -6.6203   -8.6673    4.9291 H   0  0  0  0  0  0  0  0  0  0  0  0
  -10.1048   -5.6305    6.1248 H   0  0  0  0  0  0  0  0  0  0  0  0
   -9.8103   -3.0723    5.6758 H   0  0  0  0  0  0  0  0  0  0  0  0
  -10.5055   -3.4018    7.2262 H   0  0  0  0  0  0  0  0  0  0  0  0
   -8.6122   -1.7683    7.4030 H   0  0  0  0  0  0  0  0  0  0  0  0
   -8.3320   -3.2256    8.3525 H   0  0  0  0  0  0  0  0  0  0  0  0
   -6.4535   -3.3913    7.2578 H   0  0  0  0  0  0  0  0  0  0  0  0
   -8.0090   -3.7917    4.8174 H   0  0  0  0  0  0  0  0  0  0  0  0
   -6.4543   -4.3122    5.0500 H   0  0  0  0  0  0  0  0  0  0  0  0
    0.4929  -12.9050    7.2856 H   0  0  0  0  0  0  0  0  0  0  0  0
    0.9019  -11.0645    7.1072 H   0  0  0  0  0  0  0  0  0  0  0  0
    2.0434  -11.6325    5.2533 H   0  0  0  0  0  0  0  0  0  0  0  0
    2.5994  -12.5982    6.6641 H   0  0  0  0  0  0  0  0  0  0  0  0
    1.0580  -14.3906    6.3262 H   0  0  0  0  0  0  0  0  0  0  0  0
    1.3105  -14.2060    4.6895 H   0  0  0  0  0  0  0  0  0  0  0  0
   -0.8484  -13.4780    6.1271 H   0  0  0  0  0  0  0  0  0  0  0  0
   -0.2383  -12.5825    4.4827 H   0  0  0  0  0  0  0  0  0  0  0  0
  1  2  1  0
  2  3  1  0
  3  4  1  0
  4  5  1  0
  5  6  1  0
  6  7  1  0
  7  8  2  0
  7  9  1  0
  9 10  2  0
 10 11  1  0
 11 12  1  0
 12 13  1  0
 13 14  1  0
  5 15  1  0
 15 16  2  0
 15 17  1  0
 17 18  1  0
 18 19  1  0
 19 20  1  0
 20 21  1  0
 14  9  1  0
 21 17  1  0
  1 22  1  0
  1 23  1  0
  1 24  1  0
  3 25  1  0
  3 26  1  0
  4 27  1  0
  4 28  1  0
  5 29  1  0
  6 30  1  0
 10 31  1  0
 11 32  1  0
 11 33  1  0
 12 34  1  0
 12 35  1  0
 13 36  1  0
 14 37  1  0
 14 38  1  0
 18 39  1  0
 18 40  1  0
 19 41  1  0
 19 42  1  0
 20 43  1  0
 20 44  1  0
 21 45  1  0
 21 46  1  0
M  END
>  <Energy>  (700) 
1235.2835608516307

>  <compound_id>  (700) 
48388

>  <target_id>  (700) 
1

>  <reference_id>  (700) 
85

>  <inspiration_ids>  (700) 
[95, 85]

>  <energy_score>  (700) 
1146.6481338157428

>  <distance_score>  (700) 
6.021198530887021

>  <path>  (700) 
/opt/xchem-fragalysis-2/maxwin/BulkDock/SCRATCH/511020/C48388-P85/C48388-P85.minimised.mol

>  <scratch_subdir>  (700) 
/opt/xchem-fragalysis-2/maxwin/BulkDock/SCRATCH/511020/C48388-P85

>  <fragmenstein_runtime>  (700) 
10.481963872909546

>  <fragmenstein_outcome>  (700) 
too moved

>  <fragmenstein_mode>  (700) 
expansion

>  <fragmenstein_error>  (700) 


$$$$
C48390-P95
     RDKit          2D

  0  0  0  0  0  0  0  0  0  0999 V2000
M  END
>  <compound_id>  (701) 
48390

>  <target_id>  (701) 
1

>  <reference_id>  (701) 
95

>  <inspiration_ids>  (701) 
[95, 85]

>  <energy_score>  (701) 
nan

>  <distance_score>  (701) 
nan

>  <path>  (701) 
/opt/xchem-fragalysis-2/maxwin/BulkDock/SCRATCH/511020/C48390-P95/C48390-P95.minimised.mol

>  <scratch_subdir>  (701) 
/opt/xchem-fragalysis-2/maxwin/BulkDock/SCRATCH/511020/C48390-P95

>  <fragmenstein_runtime>  (701) 
0.3439371585845947

>  <fragmenstein_outcome>  (701) 
too distant

>  <fragmenstein_mode>  (701) 
expansion

>  <fragmenstein_error>  (701) 
DistanceError: hit0

$$$$
C8431-P95
     RDKit          3D

 51 52  0  0  0  0  0  0  0  0999 V2000
    0.1145  -12.9439    6.1451 C   0  0  0  0  0  0  0  0  0  0  0  0
   -0.4384  -11.3108    6.0963 C   0  0  0  0  0  0  0  0  0  0  0  0
    0.5474   -9.9263    6.9660 C   0  0  0  0  0  0  0  0  0  0  0  0
   -2.1046  -10.3447    6.6181 C   0  0  0  0  0  0  0  0  0  0  0  0
   -3.8495   -9.6587    6.5950 N   0  0  0  0  0  0  0  0  0  0  0  0
   -4.6933   -8.6613    5.2310 C   0  0  0  0  0  0  0  0  0  0  0  0
   -4.2741   -8.3815    4.1204 O   0  0  0  0  0  0  0  0  0  0  0  0
   -6.3144   -7.8401    5.5994 C   0  0  0  0  0  0  0  0  0  0  0  0
   -6.7167   -5.9369    5.6450 N   0  0  0  0  0  0  0  0  0  0  0  0
   -7.5299   -5.1323    6.5792 C   0  0  0  0  0  0  0  0  0  0  0  0
   -8.0845   -5.4389    7.5955 O   0  0  0  0  0  0  0  0  0  0  0  0
   -7.6335   -3.6857    5.9971 C   0  0  0  0  0  0  0  0  0  0  0  0
   -6.3511   -2.8833    6.1605 C   0  0  0  0  0  0  0  0  0  0  0  0
   -6.8323   -1.5003    6.5493 C   0  0  0  0  0  0  0  0  0  0  0  0
   -8.0857   -1.7891    7.3434 C   0  0  0  0  0  0  0  0  0  0  0  0
   -8.7081   -2.8985    6.6347 N   0  0  0  0  0  0  0  0  0  0  0  0
    0.3319  -11.4393    4.8224 C   0  0  0  0  0  0  0  0  0  0  0  0
    0.1381  -12.1046    3.8878 O   0  0  0  0  0  0  0  0  0  0  0  0
    1.2581  -10.4859    5.0536 N   0  0  0  0  0  0  0  0  0  0  0  0
    2.3818  -11.0539    5.6311 C   0  0  0  0  0  0  0  0  0  0  0  0
    2.6102  -12.1795    4.7300 C   0  0  0  0  0  0  0  0  0  0  0  0
    2.4654  -11.4041    3.3498 C   0  0  0  0  0  0  0  0  0  0  0  0
    2.1917   -9.9303    4.2284 C   0  0  0  0  0  0  0  0  0  0  0  0
    0.9071  -13.1328    6.8442 H   0  0  0  0  0  0  0  0  0  0  0  0
    0.4326  -13.5208    5.2693 H   0  0  0  0  0  0  0  0  0  0  0  0
   -0.6457  -13.6549    6.1231 H   0  0  0  0  0  0  0  0  0  0  0  0
    0.0002   -9.2017    7.6008 H   0  0  0  0  0  0  0  0  0  0  0  0
    1.0135   -9.1455    6.3773 H   0  0  0  0  0  0  0  0  0  0  0  0
    1.2681  -10.4503    7.5752 H   0  0  0  0  0  0  0  0  0  0  0  0
   -2.2135  -10.2621    7.6833 H   0  0  0  0  0  0  0  0  0  0  0  0
   -2.5531  -10.8728    5.7892 H   0  0  0  0  0  0  0  0  0  0  0  0
   -4.4840   -9.7962    7.3803 H   0  0  0  0  0  0  0  0  0  0  0  0
   -6.4162   -8.1236    4.5606 H   0  0  0  0  0  0  0  0  0  0  0  0
   -6.6058   -8.2320    6.6206 H   0  0  0  0  0  0  0  0  0  0  0  0
   -6.4733   -5.3674    4.8394 H   0  0  0  0  0  0  0  0  0  0  0  0
   -7.8936   -3.7465    4.9349 H   0  0  0  0  0  0  0  0  0  0  0  0
   -5.7166   -3.2933    6.9523 H   0  0  0  0  0  0  0  0  0  0  0  0
   -5.7597   -2.8556    5.2396 H   0  0  0  0  0  0  0  0  0  0  0  0
   -6.0851   -0.9488    7.1276 H   0  0  0  0  0  0  0  0  0  0  0  0
   -7.0713   -0.9178    5.6511 H   0  0  0  0  0  0  0  0  0  0  0  0
   -7.8303   -2.0892    8.3609 H   0  0  0  0  0  0  0  0  0  0  0  0
   -8.7500   -0.9222    7.3968 H   0  0  0  0  0  0  0  0  0  0  0  0
   -9.2255   -3.4889    7.2970 H   0  0  0  0  0  0  0  0  0  0  0  0
    3.0131  -10.3267    6.1726 H   0  0  0  0  0  0  0  0  0  0  0  0
    2.0285  -11.5739    6.5190 H   0  0  0  0  0  0  0  0  0  0  0  0
    1.8318  -12.7937    5.0506 H   0  0  0  0  0  0  0  0  0  0  0  0
    3.0784  -13.1741    4.7942 H   0  0  0  0  0  0  0  0  0  0  0  0
    3.3556  -11.4330    2.7871 H   0  0  0  0  0  0  0  0  0  0  0  0
    1.8074  -11.6483    2.4880 H   0  0  0  0  0  0  0  0  0  0  0  0
    2.2695   -9.1809    3.4404 H   0  0  0  0  0  0  0  0  0  0  0  0
    2.8136   -9.2175    4.8113 H   0  0  0  0  0  0  0  0  0  0  0  0
  1  2  1  0
  2  3  1  0
  2  4  1  0
  4  5  1  0
  5  6  1  0
  6  7  2  0
  6  8  1  0
  8  9  1  0
  9 10  1  0
 10 11  2  0
 10 12  1  0
 12 13  1  0
 13 14  1  0
 14 15  1  0
 15 16  1  0
  2 17  1  0
 17 18  2  0
 17 19  1  0
 19 20  1  0
 20 21  1  0
 21 22  1  0
 22 23  1  0
 16 12  1  0
 23 19  1  0
  1 24  1  0
  1 25  1  0
  1 26  1  0
  3 27  1  0
  3 28  1  0
  3 29  1  0
  4 30  1  0
  4 31  1  0
  5 32  1  0
  8 33  1  0
  8 34  1  0
  9 35  1  0
 12 36  1  0
 13 37  1  0
 13 38  1  0
 14 39  1  0
 14 40  1  0
 15 41  1  0
 15 42  1  0
 16 43  1  0
 20 44  1  0
 20 45  1  0
 21 46  1  0
 21 47  1  0
 22 48  1  0
 22 49  1  0
 23 50  1  0
 23 51  1  0
M  END
>  <Energy>  (702) 
821.1053208231607

>  <compound_id>  (702) 
8431

>  <target_id>  (702) 
1

>  <reference_id>  (702) 
95

>  <inspiration_ids>  (702) 
[95, 85]

>  <energy_score>  (702) 
730.0449397371369

>  <distance_score>  (702) 
5.035215232418065

>  <path>  (702) 
/opt/xchem-fragalysis-2/maxwin/BulkDock/SCRATCH/511020/C8431-P95/C8431-P95.minimised.mol

>  <scratch_subdir>  (702) 
/opt/xchem-fragalysis-2/maxwin/BulkDock/SCRATCH/511020/C8431-P95

>  <fragmenstein_runtime>  (702) 
23.512962579727173

>  <fragmenstein_outcome>  (702) 
too moved

>  <fragmenstein_mode>  (702) 
expansion

>  <fragmenstein_error>  (702) 


$$$$
C8431-P85
     RDKit          3D

 51 52  0  0  0  0  0  0  0  0999 V2000
    1.5108   -8.0420   11.7761 C   0  0  0  0  0  0  0  0  0  0  0  0
    0.7756   -7.2493   10.5034 C   0  0  0  0  0  0  0  0  0  0  0  0
    1.4417   -5.8297   10.5249 C   0  0  0  0  0  0  0  0  0  0  0  0
   -0.7913   -6.6751   11.6347 C   0  0  0  0  0  0  0  0  0  0  0  0
   -1.2871   -5.8237   10.6885 N   0  0  0  0  0  0  0  0  0  0  0  0
   -3.0372   -5.5618    9.9615 C   0  0  0  0  0  0  0  0  0  0  0  0
   -4.1067   -6.0639   10.2733 O   0  0  0  0  0  0  0  0  0  0  0  0
   -3.1934   -4.4369    8.3978 C   0  0  0  0  0  0  0  0  0  0  0  0
   -3.9280   -3.3384    7.5613 N   0  0  0  0  0  0  0  0  0  0  0  0
   -5.2480   -3.3313    6.9349 C   0  0  0  0  0  0  0  0  0  0  0  0
   -6.0730   -4.1970    6.8366 O   0  0  0  0  0  0  0  0  0  0  0  0
   -5.5490   -1.9085    6.3770 C   0  0  0  0  0  0  0  0  0  0  0  0
   -6.6624   -1.9062    5.3342 C   0  0  0  0  0  0  0  0  0  0  0  0
   -7.9536   -1.7150    6.1181 C   0  0  0  0  0  0  0  0  0  0  0  0
   -7.5191   -1.4013    7.5388 C   0  0  0  0  0  0  0  0  0  0  0  0
   -6.0949   -1.0518    7.4508 N   0  0  0  0  0  0  0  0  0  0  0  0
    0.3439   -8.4408    8.8840 C   0  0  0  0  0  0  0  0  0  0  0  0
   -0.8106   -8.6610    8.8430 O   0  0  0  0  0  0  0  0  0  0  0  0
    1.3676   -9.1008    7.5625 N   0  0  0  0  0  0  0  0  0  0  0  0
    2.0640  -10.7328    7.8086 C   0  0  0  0  0  0  0  0  0  0  0  0
    3.0740  -10.8986    6.7273 C   0  0  0  0  0  0  0  0  0  0  0  0
    2.1463  -10.5422    5.6363 C   0  0  0  0  0  0  0  0  0  0  0  0
    1.0483   -9.7741    6.3954 C   0  0  0  0  0  0  0  0  0  0  0  0
    1.4209   -9.1324   11.6995 H   0  0  0  0  0  0  0  0  0  0  0  0
    1.0528   -7.7612   12.7309 H   0  0  0  0  0  0  0  0  0  0  0  0
    2.5527   -7.7621   11.9411 H   0  0  0  0  0  0  0  0  0  0  0  0
    1.0283   -5.2011   11.2919 H   0  0  0  0  0  0  0  0  0  0  0  0
    1.4149   -5.2910    9.5811 H   0  0  0  0  0  0  0  0  0  0  0  0
    2.3826   -5.7224   11.0452 H   0  0  0  0  0  0  0  0  0  0  0  0
   -0.2920   -5.9090   12.2552 H   0  0  0  0  0  0  0  0  0  0  0  0
   -0.9805   -7.1526   12.6032 H   0  0  0  0  0  0  0  0  0  0  0  0
   -0.6343   -5.3632   10.1953 H   0  0  0  0  0  0  0  0  0  0  0  0
   -2.7145   -4.9596    7.5759 H   0  0  0  0  0  0  0  0  0  0  0  0
   -2.6898   -3.5823    8.8186 H   0  0  0  0  0  0  0  0  0  0  0  0
   -3.5390   -2.4012    7.5271 H   0  0  0  0  0  0  0  0  0  0  0  0
   -4.6318   -1.4831    5.9556 H   0  0  0  0  0  0  0  0  0  0  0  0
   -6.6914   -2.8169    4.7271 H   0  0  0  0  0  0  0  0  0  0  0  0
   -6.5304   -1.0581    4.6507 H   0  0  0  0  0  0  0  0  0  0  0  0
   -8.5382   -0.8938    5.6886 H   0  0  0  0  0  0  0  0  0  0  0  0
   -8.5727   -2.6181    6.0897 H   0  0  0  0  0  0  0  0  0  0  0  0
   -7.6645   -2.2781    8.1779 H   0  0  0  0  0  0  0  0  0  0  0  0
   -8.0967   -0.5776    7.9686 H   0  0  0  0  0  0  0  0  0  0  0  0
   -5.6429   -1.2615    8.3402 H   0  0  0  0  0  0  0  0  0  0  0  0
    2.5198  -10.9832    8.7722 H   0  0  0  0  0  0  0  0  0  0  0  0
    1.3834  -11.5304    7.5528 H   0  0  0  0  0  0  0  0  0  0  0  0
    3.4817  -11.9091    6.6499 H   0  0  0  0  0  0  0  0  0  0  0  0
    3.8621  -10.1656    6.8508 H   0  0  0  0  0  0  0  0  0  0  0  0
    2.6300   -9.9240    4.8775 H   0  0  0  0  0  0  0  0  0  0  0  0
    1.7231  -11.4204    5.1392 H   0  0  0  0  0  0  0  0  0  0  0  0
    1.0418   -8.8923    5.8452 H   0  0  0  0  0  0  0  0  0  0  0  0
    0.1572  -10.3302    6.6232 H   0  0  0  0  0  0  0  0  0  0  0  0
  1  2  1  0
  2  3  1  0
  2  4  1  0
  4  5  1  0
  5  6  1  0
  6  7  2  0
  6  8  1  0
  8  9  1  0
  9 10  1  0
 10 11  2  0
 10 12  1  0
 12 13  1  0
 13 14  1  0
 14 15  1  0
 15 16  1  0
  2 17  1  0
 17 18  2  0
 17 19  1  0
 19 20  1  0
 20 21  1  0
 21 22  1  0
 22 23  1  0
 16 12  1  0
 23 19  1  0
  1 24  1  0
  1 25  1  0
  1 26  1  0
  3 27  1  0
  3 28  1  0
  3 29  1  0
  4 30  1  0
  4 31  1  0
  5 32  1  0
  8 33  1  0
  8 34  1  0
  9 35  1  0
 12 36  1  0
 13 37  1  0
 13 38  1  0
 14 39  1  0
 14 40  1  0
 15 41  1  0
 15 42  1  0
 16 43  1  0
 20 44  1  0
 20 45  1  0
 21 46  1  0
 21 47  1  0
 22 48  1  0
 22 49  1  0
 23 50  1  0
 23 51  1  0
M  END
>  <Energy>  (703) 
595.97022603660207

>  <compound_id>  (703) 
8431

>  <target_id>  (703) 
1

>  <reference_id>  (703) 
85

>  <inspiration_ids>  (703) 
[95, 85]

>  <energy_score>  (703) 
504.9098449505649

>  <distance_score>  (703) 
6.413233927581131

>  <path>  (703) 
/opt/xchem-fragalysis-2/maxwin/BulkDock/SCRATCH/511020/C8431-P85/C8431-P85.minimised.mol

>  <scratch_subdir>  (703) 
/opt/xchem-fragalysis-2/maxwin/BulkDock/SCRATCH/511020/C8431-P85

>  <fragmenstein_runtime>  (703) 
23.080549240112305

>  <fragmenstein_outcome>  (703) 
too moved

>  <fragmenstein_mode>  (703) 
expansion

>  <fragmenstein_error>  (703) 


$$$$
C46190-P40
     RDKit          3D

 25 27  0  0  0  0  0  0  0  0999 V2000
   11.5245   -5.0871   21.2647 S   0  0  0  0  0  0  0  0  0  0  0  0
    9.8184   -5.0397   20.5875 C   0  0  0  0  0  0  0  0  0  0  0  0
    8.0382   -4.1715   20.8828 C   0  0  0  0  0  0  0  0  0  0  0  0
    7.2366   -5.0039   21.7613 C   0  0  0  0  0  0  0  0  0  0  0  0
    6.5060   -5.3569   23.3968 C   0  0  0  0  0  0  0  0  0  0  0  0
    6.0660   -4.3608   24.3121 C   0  0  0  0  0  0  0  0  0  0  0  0
    6.2866   -4.7795   25.6015 N   0  0  0  0  0  0  0  0  0  0  0  0
    5.5789   -5.9218   25.6368 C   0  0  0  0  0  0  0  0  0  0  0  0
    4.7874   -6.3843   26.6998 C   0  0  0  0  0  0  0  0  0  0  0  0
    3.8762   -7.3767   26.4181 C   0  0  0  0  0  0  0  0  0  0  0  0
    3.8735   -7.9469   25.1647 C   0  0  0  0  0  0  0  0  0  0  0  0
    4.7432   -7.4673   24.1556 C   0  0  0  0  0  0  0  0  0  0  0  0
    5.6701   -6.4012   24.3004 C   0  0  0  0  0  0  0  0  0  0  0  0
    6.8031   -5.1920   19.8857 C   0  0  0  0  0  0  0  0  0  0  0  0
    7.5646   -5.9147   19.0203 N   0  0  0  0  0  0  0  0  0  0  0  0
    9.4585   -5.8054   19.4507 N   0  0  0  0  0  0  0  0  0  0  0  0
    8.2339   -3.9699   19.9010 H   0  0  0  0  0  0  0  0  0  0  0  0
    5.8882   -3.2940   24.2179 H   0  0  0  0  0  0  0  0  0  0  0  0
    6.3777   -4.1374   26.3738 H   0  0  0  0  0  0  0  0  0  0  0  0
    4.8035   -5.8926   27.6662 H   0  0  0  0  0  0  0  0  0  0  0  0
    3.1714   -7.6958   27.1705 H   0  0  0  0  0  0  0  0  0  0  0  0
    3.1766   -8.7440   24.9089 H   0  0  0  0  0  0  0  0  0  0  0  0
    4.5384   -7.8708   23.1807 H   0  0  0  0  0  0  0  0  0  0  0  0
    5.9284   -4.6259   19.4746 H   0  0  0  0  0  0  0  0  0  0  0  0
   10.0761   -5.4042   18.7407 H   0  0  0  0  0  0  0  0  0  0  0  0
  1  2  2  0
  2  3  1  0
  3  4  2  0
  4  5  1  0
  5  6  2  0
  6  7  1  0
  7  8  1  0
  8  9  2  0
  9 10  1  0
 10 11  2  0
 11 12  1  0
 12 13  2  0
  4 14  1  0
 14 15  2  0
 15 16  1  0
 16  2  1  0
 13  5  1  0
 13  8  1  0
  3 17  1  0
  6 18  1  0
  7 19  1  0
  9 20  1  0
 10 21  1  0
 11 22  1  0
 12 23  1  0
 14 24  1  0
 16 25  1  0
M  END
>  <Energy>  (704) 
527.67791654817267

>  <compound_id>  (704) 
46190

>  <target_id>  (704) 
1

>  <reference_id>  (704) 
40

>  <inspiration_ids>  (704) 
[40, 122]

>  <energy_score>  (704) 
456.7116543325551

>  <distance_score>  (704) 
6.837831034357033

>  <path>  (704) 
/opt/xchem-fragalysis-2/maxwin/BulkDock/SCRATCH/511020/C46190-P40/C46190-P40.minimised.mol

>  <scratch_subdir>  (704) 
/opt/xchem-fragalysis-2/maxwin/BulkDock/SCRATCH/511020/C46190-P40

>  <fragmenstein_runtime>  (704) 
4.906456232070923

>  <fragmenstein_outcome>  (704) 
too moved

>  <fragmenstein_mode>  (704) 
expansion

>  <fragmenstein_error>  (704) 


$$$$
C46190-P122
     RDKit          3D

 25 27  0  0  0  0  0  0  0  0999 V2000
   14.4121   -4.7018   20.1443 S   0  0  0  0  0  0  0  0  0  0  0  0
   13.1570   -4.4871   21.2394 C   0  0  0  0  0  0  0  0  0  0  0  0
   11.8189   -3.9143   20.9259 C   0  0  0  0  0  0  0  0  0  0  0  0
   10.6266   -3.3194   21.5324 C   0  0  0  0  0  0  0  0  0  0  0  0
    8.4187   -3.4874   21.4796 C   0  0  0  0  0  0  0  0  0  0  0  0
    7.6974   -4.7033   22.5488 C   0  0  0  0  0  0  0  0  0  0  0  0
    7.4925   -4.1776   23.7925 N   0  0  0  0  0  0  0  0  0  0  0  0
    6.5471   -3.3731   24.0314 C   0  0  0  0  0  0  0  0  0  0  0  0
    5.9304   -2.1372   24.9464 C   0  0  0  0  0  0  0  0  0  0  0  0
    4.6257   -1.8897   24.8182 C   0  0  0  0  0  0  0  0  0  0  0  0
    4.3832   -2.0456   23.5105 C   0  0  0  0  0  0  0  0  0  0  0  0
    5.4901   -2.3105   22.3959 C   0  0  0  0  0  0  0  0  0  0  0  0
    6.7746   -3.4829   22.6350 C   0  0  0  0  0  0  0  0  0  0  0  0
   11.6489   -3.4129   23.0709 C   0  0  0  0  0  0  0  0  0  0  0  0
   12.6606   -4.1311   23.4553 N   0  0  0  0  0  0  0  0  0  0  0  0
   13.2733   -4.8806   22.5278 N   0  0  0  0  0  0  0  0  0  0  0  0
   12.1659   -3.4147   20.0123 H   0  0  0  0  0  0  0  0  0  0  0  0
    7.4459   -5.7515   22.4770 H   0  0  0  0  0  0  0  0  0  0  0  0
    8.1626   -3.7104   24.3720 H   0  0  0  0  0  0  0  0  0  0  0  0
    6.4796   -1.8948   25.8649 H   0  0  0  0  0  0  0  0  0  0  0  0
    3.9345   -1.5498   25.5641 H   0  0  0  0  0  0  0  0  0  0  0  0
    3.3282   -2.2168   23.3171 H   0  0  0  0  0  0  0  0  0  0  0  0
    5.4749   -2.3379   21.3248 H   0  0  0  0  0  0  0  0  0  0  0  0
   11.3536   -2.6601   23.8247 H   0  0  0  0  0  0  0  0  0  0  0  0
   14.1810   -5.2398   22.8131 H   0  0  0  0  0  0  0  0  0  0  0  0
  1  2  2  0
  2  3  1  0
  3  4  2  0
  4  5  1  0
  5  6  2  0
  6  7  1  0
  7  8  1  0
  8  9  2  0
  9 10  1  0
 10 11  2  0
 11 12  1  0
 12 13  2  0
  4 14  1  0
 14 15  2  0
 15 16  1  0
 16  2  1  0
 13  5  1  0
 13  8  1  0
  3 17  1  0
  6 18  1  0
  7 19  1  0
  9 20  1  0
 10 21  1  0
 11 22  1  0
 12 23  1  0
 14 24  1  0
 16 25  1  0
M  END
>  <Energy>  (705) 
911.08620398462324

>  <compound_id>  (705) 
46190

>  <target_id>  (705) 
1

>  <reference_id>  (705) 
122

>  <inspiration_ids>  (705) 
[40, 122]

>  <energy_score>  (705) 
840.119941769005

>  <distance_score>  (705) 
8.227132871191163

>  <path>  (705) 
/opt/xchem-fragalysis-2/maxwin/BulkDock/SCRATCH/511020/C46190-P122/C46190-P122.minimised.mol

>  <scratch_subdir>  (705) 
/opt/xchem-fragalysis-2/maxwin/BulkDock/SCRATCH/511020/C46190-P122

>  <fragmenstein_runtime>  (705) 
4.969735383987427

>  <fragmenstein_outcome>  (705) 
too moved

>  <fragmenstein_mode>  (705) 
expansion

>  <fragmenstein_error>  (705) 


$$$$
C24459-P40
     RDKit          3D

 40 42  0  0  0  0  0  0  0  0999 V2000
    5.9009   -3.9470   24.5320 C   0  0  0  0  0  0  0  0  0  0  0  0
    6.8134   -4.6942   23.0454 C   0  0  0  0  0  0  0  0  0  0  0  0
    7.6947   -4.2753   21.2291 C   0  0  0  0  0  0  0  0  0  0  0  0
    9.5825   -4.6851   20.7452 N   0  0  0  0  0  0  0  0  0  0  0  0
   11.0600   -4.3298   21.5594 C   0  0  0  0  0  0  0  0  0  0  0  0
   11.2476   -3.6734   22.5739 O   0  0  0  0  0  0  0  0  0  0  0  0
   12.3124   -4.8434   20.9533 C   0  0  0  0  0  0  0  0  0  0  0  0
   13.0366   -4.3805   19.8170 C   0  0  0  0  0  0  0  0  0  0  0  0
   14.2907   -4.8291   19.7681 N   0  0  0  0  0  0  0  0  0  0  0  0
   14.3852   -5.5983   20.8566 N   0  0  0  0  0  0  0  0  0  0  0  0
   13.2463   -5.6233   21.6100 C   0  0  0  0  0  0  0  0  0  0  0  0
    6.4642   -5.9564   23.7577 N   0  0  0  0  0  0  0  0  0  0  0  0
    6.8482   -6.4428   25.0932 C   0  0  0  0  0  0  0  0  0  0  0  0
    7.6038   -5.9845   25.9066 O   0  0  0  0  0  0  0  0  0  0  0  0
    6.1510   -7.6204   25.6080 C   0  0  0  0  0  0  0  0  0  0  0  0
    4.8101   -7.8675   25.2911 C   0  0  0  0  0  0  0  0  0  0  0  0
    4.4070   -9.1963   25.1824 C   0  0  0  0  0  0  0  0  0  0  0  0
    5.3888  -10.1888   25.4902 C   0  0  0  0  0  0  0  0  0  0  0  0
    5.3848  -11.5503   25.2797 N   0  0  0  0  0  0  0  0  0  0  0  0
    6.4516  -12.1336   25.9042 C   0  0  0  0  0  0  0  0  0  0  0  0
    7.2444  -11.1319   26.4046 C   0  0  0  0  0  0  0  0  0  0  0  0
    6.6121   -9.9050   26.0975 C   0  0  0  0  0  0  0  0  0  0  0  0
    6.9934   -8.5728   26.2066 C   0  0  0  0  0  0  0  0  0  0  0  0
    4.9708   -4.4845   24.7702 H   0  0  0  0  0  0  0  0  0  0  0  0
    5.6721   -2.8714   24.4143 H   0  0  0  0  0  0  0  0  0  0  0  0
    6.4524   -4.0390   25.4817 H   0  0  0  0  0  0  0  0  0  0  0  0
    6.2930   -3.7502   22.8179 H   0  0  0  0  0  0  0  0  0  0  0  0
    7.5594   -3.2032   21.2829 H   0  0  0  0  0  0  0  0  0  0  0  0
    7.1867   -4.5569   20.2689 H   0  0  0  0  0  0  0  0  0  0  0  0
    9.7768   -5.1838   19.8895 H   0  0  0  0  0  0  0  0  0  0  0  0
   12.7391   -3.6848   19.0470 H   0  0  0  0  0  0  0  0  0  0  0  0
   15.2699   -6.0607   21.0365 H   0  0  0  0  0  0  0  0  0  0  0  0
   13.2203   -6.1212   22.5681 H   0  0  0  0  0  0  0  0  0  0  0  0
    5.7402   -6.5493   23.3856 H   0  0  0  0  0  0  0  0  0  0  0  0
    4.1622   -7.0784   24.9249 H   0  0  0  0  0  0  0  0  0  0  0  0
    3.4504   -9.4736   24.7432 H   0  0  0  0  0  0  0  0  0  0  0  0
    4.5748  -12.0454   24.9230 H   0  0  0  0  0  0  0  0  0  0  0  0
    6.5583  -13.2099   25.9211 H   0  0  0  0  0  0  0  0  0  0  0  0
    8.1947  -11.2699   26.9039 H   0  0  0  0  0  0  0  0  0  0  0  0
    7.9976   -8.3168   26.5362 H   0  0  0  0  0  0  0  0  0  0  0  0
  1  2  1  0
  2  3  1  0
  3  4  1  0
  4  5  1  0
  5  6  2  0
  5  7  1  0
  7  8  1  0
  8  9  2  0
  9 10  1  0
 10 11  1  0
  2 12  1  0
 12 13  1  0
 13 14  2  0
 13 15  1  0
 15 16  2  0
 16 17  1  0
 17 18  2  0
 18 19  1  0
 19 20  1  0
 20 21  2  0
 21 22  1  0
 22 23  2  0
 11  7  2  0
 23 15  1  0
 22 18  1  0
  1 24  1  0
  1 25  1  0
  1 26  1  0
  2 27  1  0
  3 28  1  0
  3 29  1  0
  4 30  1  0
  8 31  1  0
 10 32  1  0
 11 33  1  0
 12 34  1  0
 16 35  1  0
 17 36  1  0
 19 37  1  0
 20 38  1  0
 21 39  1  0
 23 40  1  0
M  END
>  <Energy>  (706) 
370.41298524378249

>  <compound_id>  (706) 
24459

>  <target_id>  (706) 
1

>  <reference_id>  (706) 
40

>  <inspiration_ids>  (706) 
[40, 122]

>  <energy_score>  (706) 
334.2515140744092

>  <distance_score>  (706) 
7.959242464818238

>  <path>  (706) 
/opt/xchem-fragalysis-2/maxwin/BulkDock/SCRATCH/511020/C24459-P40/C24459-P40.minimised.mol

>  <scratch_subdir>  (706) 
/opt/xchem-fragalysis-2/maxwin/BulkDock/SCRATCH/511020/C24459-P40

>  <fragmenstein_runtime>  (706) 
12.298070669174194

>  <fragmenstein_outcome>  (706) 
too moved

>  <fragmenstein_mode>  (706) 
expansion

>  <fragmenstein_error>  (706) 


$$$$
C24459-P122
     RDKit          3D

 40 42  0  0  0  0  0  0  0  0999 V2000
    6.9616   -1.8461   25.8157 C   0  0  0  0  0  0  0  0  0  0  0  0
    5.8547   -2.4967   24.5663 C   0  0  0  0  0  0  0  0  0  0  0  0
    6.6213   -4.0669   23.5809 C   0  0  0  0  0  0  0  0  0  0  0  0
    7.7899   -4.2098   23.0465 N   0  0  0  0  0  0  0  0  0  0  0  0
    8.5887   -3.3552   21.5801 C   0  0  0  0  0  0  0  0  0  0  0  0
    7.9611   -2.6713   20.9629 O   0  0  0  0  0  0  0  0  0  0  0  0
   10.7798   -3.5147   21.2872 C   0  0  0  0  0  0  0  0  0  0  0  0
   11.8783   -4.6344   20.7118 C   0  0  0  0  0  0  0  0  0  0  0  0
   13.1587   -4.5685   21.0528 N   0  0  0  0  0  0  0  0  0  0  0  0
   13.0932   -3.7720   22.0981 N   0  0  0  0  0  0  0  0  0  0  0  0
   11.8040   -3.5516   22.5109 C   0  0  0  0  0  0  0  0  0  0  0  0
    4.4309   -2.3134   25.3161 N   0  0  0  0  0  0  0  0  0  0  0  0
    4.1083   -2.1561   26.7505 C   0  0  0  0  0  0  0  0  0  0  0  0
    4.8171   -2.2049   27.7260 O   0  0  0  0  0  0  0  0  0  0  0  0
    2.7049   -1.9269   27.1579 C   0  0  0  0  0  0  0  0  0  0  0  0
    2.2176   -0.6269   27.2345 C   0  0  0  0  0  0  0  0  0  0  0  0
    1.0103   -0.3387   27.8953 C   0  0  0  0  0  0  0  0  0  0  0  0
    0.3402   -1.3938   28.5280 C   0  0  0  0  0  0  0  0  0  0  0  0
   -0.8301   -1.4131   29.2462 N   0  0  0  0  0  0  0  0  0  0  0  0
   -1.0435   -2.6610   29.7729 C   0  0  0  0  0  0  0  0  0  0  0  0
   -0.0280   -3.4824   29.3451 C   0  0  0  0  0  0  0  0  0  0  0  0
    0.8400   -2.6898   28.5498 C   0  0  0  0  0  0  0  0  0  0  0  0
    2.0491   -2.9348   27.8866 C   0  0  0  0  0  0  0  0  0  0  0  0
    7.2688   -2.5617   26.5883 H   0  0  0  0  0  0  0  0  0  0  0  0
    6.4461   -1.0447   26.3568 H   0  0  0  0  0  0  0  0  0  0  0  0
    7.9346   -1.4604   25.4858 H   0  0  0  0  0  0  0  0  0  0  0  0
    5.5802   -1.8953   23.7206 H   0  0  0  0  0  0  0  0  0  0  0  0
    6.3060   -5.0875   23.7849 H   0  0  0  0  0  0  0  0  0  0  0  0
    6.4910   -3.5159   22.6744 H   0  0  0  0  0  0  0  0  0  0  0  0
    8.4523   -4.8641   23.4551 H   0  0  0  0  0  0  0  0  0  0  0  0
   11.6272   -5.4275   20.0366 H   0  0  0  0  0  0  0  0  0  0  0  0
   13.9466   -3.5389   22.5935 H   0  0  0  0  0  0  0  0  0  0  0  0
   11.6807   -3.1556   23.5130 H   0  0  0  0  0  0  0  0  0  0  0  0
    3.5669   -2.2929   24.7752 H   0  0  0  0  0  0  0  0  0  0  0  0
    2.7957    0.1825   26.7934 H   0  0  0  0  0  0  0  0  0  0  0  0
    0.6304    0.6768   27.9301 H   0  0  0  0  0  0  0  0  0  0  0  0
   -1.4197   -0.6075   29.3997 H   0  0  0  0  0  0  0  0  0  0  0  0
   -1.8964   -2.8439   30.4088 H   0  0  0  0  0  0  0  0  0  0  0  0
    0.0924   -4.5283   29.5927 H   0  0  0  0  0  0  0  0  0  0  0  0
    2.4981   -3.8954   28.0279 H   0  0  0  0  0  0  0  0  0  0  0  0
  1  2  1  0
  2  3  1  0
  3  4  1  0
  4  5  1  0
  5  6  2  0
  5  7  1  0
  7  8  1  0
  8  9  2  0
  9 10  1  0
 10 11  1  0
  2 12  1  0
 12 13  1  0
 13 14  2  0
 13 15  1  0
 15 16  2  0
 16 17  1  0
 17 18  2  0
 18 19  1  0
 19 20  1  0
 20 21  2  0
 21 22  1  0
 22 23  2  0
 11  7  2  0
 23 15  1  0
 22 18  1  0
  1 24  1  0
  1 25  1  0
  1 26  1  0
  2 27  1  0
  3 28  1  0
  3 29  1  0
  4 30  1  0
  8 31  1  0
 10 32  1  0
 11 33  1  0
 12 34  1  0
 16 35  1  0
 17 36  1  0
 19 37  1  0
 20 38  1  0
 21 39  1  0
 23 40  1  0
M  END
>  <Energy>  (707) 
529.46917238513061

>  <compound_id>  (707) 
24459

>  <target_id>  (707) 
1

>  <reference_id>  (707) 
122

>  <inspiration_ids>  (707) 
[40, 122]

>  <energy_score>  (707) 
493.3077012157491

>  <distance_score>  (707) 
6.297245646348637

>  <path>  (707) 
/opt/xchem-fragalysis-2/maxwin/BulkDock/SCRATCH/511020/C24459-P122/C24459-P122.minimised.mol

>  <scratch_subdir>  (707) 
/opt/xchem-fragalysis-2/maxwin/BulkDock/SCRATCH/511020/C24459-P122

>  <fragmenstein_runtime>  (707) 
10.350200891494751

>  <fragmenstein_outcome>  (707) 
too moved

>  <fragmenstein_mode>  (707) 
expansion

>  <fragmenstein_error>  (707) 


$$$$
C30247-P40
     RDKit          3D

 40 42  0  0  0  0  0  0  0  0999 V2000
    6.1736   -0.3033   25.6064 C   0  0  0  0  0  0  0  0  0  0  0  0
    4.9823   -0.0981   24.5490 C   0  0  0  0  0  0  0  0  0  0  0  0
    4.9067   -0.9142   22.9509 C   0  0  0  0  0  0  0  0  0  0  0  0
    5.5384   -0.8002   21.1556 N   0  0  0  0  0  0  0  0  0  0  0  0
    6.1293    0.7103   20.1157 C   0  0  0  0  0  0  0  0  0  0  0  0
    6.0942    1.8892   20.4762 O   0  0  0  0  0  0  0  0  0  0  0  0
    6.8541    0.6000   18.7254 C   0  0  0  0  0  0  0  0  0  0  0  0
    8.1012    1.2837   18.5110 C   0  0  0  0  0  0  0  0  0  0  0  0
    8.4285    1.1321   17.1879 C   0  0  0  0  0  0  0  0  0  0  0  0
    7.3692    0.4807   16.6412 N   0  0  0  0  0  0  0  0  0  0  0  0
    6.3562    0.2725   17.5061 N   0  0  0  0  0  0  0  0  0  0  0  0
    4.0171   -0.7525   25.4852 N   0  0  0  0  0  0  0  0  0  0  0  0
    3.2997   -0.2308   26.6202 C   0  0  0  0  0  0  0  0  0  0  0  0
    3.2297    0.8816   27.0561 O   0  0  0  0  0  0  0  0  0  0  0  0
    2.6071   -1.3084   27.4372 C   0  0  0  0  0  0  0  0  0  0  0  0
    1.3777   -1.0001   28.0313 C   0  0  0  0  0  0  0  0  0  0  0  0
    0.6270   -1.9701   28.7062 C   0  0  0  0  0  0  0  0  0  0  0  0
    1.1463   -3.2666   28.7649 C   0  0  0  0  0  0  0  0  0  0  0  0
    0.6098   -4.4047   29.3158 N   0  0  0  0  0  0  0  0  0  0  0  0
    1.4537   -5.4681   29.1263 C   0  0  0  0  0  0  0  0  0  0  0  0
    2.5703   -5.0044   28.4679 C   0  0  0  0  0  0  0  0  0  0  0  0
    2.3835   -3.6118   28.2276 C   0  0  0  0  0  0  0  0  0  0  0  0
    3.1442   -2.6080   27.5881 C   0  0  0  0  0  0  0  0  0  0  0  0
    7.2082   -0.0509   25.3754 H   0  0  0  0  0  0  0  0  0  0  0  0
    6.2235   -1.3580   25.9199 H   0  0  0  0  0  0  0  0  0  0  0  0
    5.9598    0.2841   26.5110 H   0  0  0  0  0  0  0  0  0  0  0  0
    4.7075    0.9559   24.4501 H   0  0  0  0  0  0  0  0  0  0  0  0
    5.3447   -1.8798   23.2846 H   0  0  0  0  0  0  0  0  0  0  0  0
    3.9893   -1.5216   22.9805 H   0  0  0  0  0  0  0  0  0  0  0  0
    5.7149   -1.6713   20.6312 H   0  0  0  0  0  0  0  0  0  0  0  0
    8.6294    1.8566   19.2601 H   0  0  0  0  0  0  0  0  0  0  0  0
    9.2630    1.4751   16.5924 H   0  0  0  0  0  0  0  0  0  0  0  0
    7.2541    0.1638   15.6795 H   0  0  0  0  0  0  0  0  0  0  0  0
    3.9150   -1.7520   25.4635 H   0  0  0  0  0  0  0  0  0  0  0  0
    0.9705    0.0051   27.9295 H   0  0  0  0  0  0  0  0  0  0  0  0
   -0.3437   -1.7208   29.1242 H   0  0  0  0  0  0  0  0  0  0  0  0
   -0.2863   -4.4307   29.7823 H   0  0  0  0  0  0  0  0  0  0  0  0
    1.1876   -6.4483   29.4918 H   0  0  0  0  0  0  0  0  0  0  0  0
    3.4327   -5.5925   28.1798 H   0  0  0  0  0  0  0  0  0  0  0  0
    4.1269   -2.8574   27.1999 H   0  0  0  0  0  0  0  0  0  0  0  0
  1  2  1  0
  2  3  1  0
  3  4  1  0
  4  5  1  0
  5  6  2  0
  5  7  1  0
  7  8  1  0
  8  9  2  0
  9 10  1  0
 10 11  1  0
  2 12  1  0
 12 13  1  0
 13 14  2  0
 13 15  1  0
 15 16  2  0
 16 17  1  0
 17 18  2  0
 18 19  1  0
 19 20  1  0
 20 21  2  0
 21 22  1  0
 22 23  2  0
 11  7  2  0
 23 15  1  0
 22 18  1  0
  1 24  1  0
  1 25  1  0
  1 26  1  0
  2 27  1  0
  3 28  1  0
  3 29  1  0
  4 30  1  0
  8 31  1  0
  9 32  1  0
 10 33  1  0
 12 34  1  0
 16 35  1  0
 17 36  1  0
 19 37  1  0
 20 38  1  0
 21 39  1  0
 23 40  1  0
M  END
>  <Energy>  (708) 
294.53517859787888

>  <compound_id>  (708) 
30247

>  <target_id>  (708) 
1

>  <reference_id>  (708) 
40

>  <inspiration_ids>  (708) 
[40, 122]

>  <energy_score>  (708) 
211.12534791744383

>  <distance_score>  (708) 
6.39727613352018

>  <path>  (708) 
/opt/xchem-fragalysis-2/maxwin/BulkDock/SCRATCH/511020/C30247-P40/C30247-P40.minimised.mol

>  <scratch_subdir>  (708) 
/opt/xchem-fragalysis-2/maxwin/BulkDock/SCRATCH/511020/C30247-P40

>  <fragmenstein_runtime>  (708) 
11.911418676376343

>  <fragmenstein_outcome>  (708) 
too moved

>  <fragmenstein_mode>  (708) 
expansion

>  <fragmenstein_error>  (708) 


$$$$
C30247-P122
     RDKit          3D

 40 42  0  0  0  0  0  0  0  0999 V2000
    6.8974   -6.2949   23.1085 C   0  0  0  0  0  0  0  0  0  0  0  0
    7.6856   -4.9014   22.7477 C   0  0  0  0  0  0  0  0  0  0  0  0
    8.4638   -4.6652   20.7450 C   0  0  0  0  0  0  0  0  0  0  0  0
   10.6029   -4.9288   20.7312 N   0  0  0  0  0  0  0  0  0  0  0  0
   11.8614   -4.9254   19.3960 C   0  0  0  0  0  0  0  0  0  0  0  0
   11.7248   -4.8519   18.1577 O   0  0  0  0  0  0  0  0  0  0  0  0
   13.2330   -4.9128   19.9743 C   0  0  0  0  0  0  0  0  0  0  0  0
   13.6470   -4.5066   21.2665 C   0  0  0  0  0  0  0  0  0  0  0  0
   15.0204   -4.5193   21.2307 C   0  0  0  0  0  0  0  0  0  0  0  0
   15.3609   -4.9002   19.9711 N   0  0  0  0  0  0  0  0  0  0  0  0
   14.3069   -5.1494   19.1882 N   0  0  0  0  0  0  0  0  0  0  0  0
    7.2081   -3.6583   24.1627 N   0  0  0  0  0  0  0  0  0  0  0  0
    8.0714   -3.2006   25.7306 C   0  0  0  0  0  0  0  0  0  0  0  0
    9.1839   -3.5418   26.1582 O   0  0  0  0  0  0  0  0  0  0  0  0
    7.3325   -2.3451   26.8126 C   0  0  0  0  0  0  0  0  0  0  0  0
    7.1330   -0.9892   26.8696 C   0  0  0  0  0  0  0  0  0  0  0  0
    6.1724   -0.4303   27.7406 C   0  0  0  0  0  0  0  0  0  0  0  0
    5.5145   -1.2853   28.6360 C   0  0  0  0  0  0  0  0  0  0  0  0
    4.4595   -1.0744   29.4921 N   0  0  0  0  0  0  0  0  0  0  0  0
    4.2075   -2.2084   30.2228 C   0  0  0  0  0  0  0  0  0  0  0  0
    5.1305   -3.1601   29.8548 C   0  0  0  0  0  0  0  0  0  0  0  0
    5.9299   -2.5984   28.8219 C   0  0  0  0  0  0  0  0  0  0  0  0
    6.9525   -3.0805   27.9849 C   0  0  0  0  0  0  0  0  0  0  0  0
    5.9905   -6.2216   23.6862 H   0  0  0  0  0  0  0  0  0  0  0  0
    7.4843   -6.9810   23.7153 H   0  0  0  0  0  0  0  0  0  0  0  0
    6.6664   -6.8428   22.2216 H   0  0  0  0  0  0  0  0  0  0  0  0
    8.3785   -5.3373   23.4156 H   0  0  0  0  0  0  0  0  0  0  0  0
    7.6964   -4.8397   20.0054 H   0  0  0  0  0  0  0  0  0  0  0  0
    8.2718   -3.6318   20.9835 H   0  0  0  0  0  0  0  0  0  0  0  0
   11.0610   -4.9023   21.6220 H   0  0  0  0  0  0  0  0  0  0  0  0
   13.0391   -4.1760   22.0969 H   0  0  0  0  0  0  0  0  0  0  0  0
   15.7669   -4.2627   21.9686 H   0  0  0  0  0  0  0  0  0  0  0  0
   16.2901   -5.0031   19.5751 H   0  0  0  0  0  0  0  0  0  0  0  0
    6.2835   -3.2746   24.1606 H   0  0  0  0  0  0  0  0  0  0  0  0
    7.7539   -0.3468   26.2620 H   0  0  0  0  0  0  0  0  0  0  0  0
    5.9426    0.6290   27.6964 H   0  0  0  0  0  0  0  0  0  0  0  0
    3.9419   -0.2094   29.5591 H   0  0  0  0  0  0  0  0  0  0  0  0
    3.4039   -2.2316   30.9463 H   0  0  0  0  0  0  0  0  0  0  0  0
    5.1957   -4.1628   30.2522 H   0  0  0  0  0  0  0  0  0  0  0  0
    7.2913   -4.1058   28.0992 H   0  0  0  0  0  0  0  0  0  0  0  0
  1  2  1  0
  2  3  1  0
  3  4  1  0
  4  5  1  0
  5  6  2  0
  5  7  1  0
  7  8  1  0
  8  9  2  0
  9 10  1  0
 10 11  1  0
  2 12  1  0
 12 13  1  0
 13 14  2  0
 13 15  1  0
 15 16  2  0
 16 17  1  0
 17 18  2  0
 18 19  1  0
 19 20  1  0
 20 21  2  0
 21 22  1  0
 22 23  2  0
 11  7  2  0
 23 15  1  0
 22 18  1  0
  1 24  1  0
  1 25  1  0
  1 26  1  0
  2 27  1  0
  3 28  1  0
  3 29  1  0
  4 30  1  0
  8 31  1  0
  9 32  1  0
 10 33  1  0
 12 34  1  0
 16 35  1  0
 17 36  1  0
 19 37  1  0
 20 38  1  0
 21 39  1  0
 23 40  1  0
M  END
>  <Energy>  (709) 
555.51405601589818

>  <compound_id>  (709) 
30247

>  <target_id>  (709) 
1

>  <reference_id>  (709) 
122

>  <inspiration_ids>  (709) 
[40, 122]

>  <energy_score>  (709) 
472.1042253354567

>  <distance_score>  (709) 
7.782317716678902

>  <path>  (709) 
/opt/xchem-fragalysis-2/maxwin/BulkDock/SCRATCH/511020/C30247-P122/C30247-P122.minimised.mol

>  <scratch_subdir>  (709) 
/opt/xchem-fragalysis-2/maxwin/BulkDock/SCRATCH/511020/C30247-P122

>  <fragmenstein_runtime>  (709) 
15.918819189071655

>  <fragmenstein_outcome>  (709) 
too moved

>  <fragmenstein_mode>  (709) 
expansion

>  <fragmenstein_error>  (709) 


$$$$
C24460-P40
     RDKit          3D

 40 42  0  0  0  0  0  0  0  0999 V2000
    6.0132   -2.8135   20.7915 C   0  0  0  0  0  0  0  0  0  0  0  0
    7.5565   -3.9651   21.2020 C   0  0  0  0  0  0  0  0  0  0  0  0
    6.9209   -4.9349   22.8355 C   0  0  0  0  0  0  0  0  0  0  0  0
    6.4025   -5.0008   24.2395 N   0  0  0  0  0  0  0  0  0  0  0  0
    5.8916   -6.1015   25.0054 C   0  0  0  0  0  0  0  0  0  0  0  0
    5.8222   -7.2681   24.7468 O   0  0  0  0  0  0  0  0  0  0  0  0
    5.2500   -5.6646   26.3127 C   0  0  0  0  0  0  0  0  0  0  0  0
    5.7026   -4.5725   27.0620 C   0  0  0  0  0  0  0  0  0  0  0  0
    4.9652   -4.0678   28.1430 C   0  0  0  0  0  0  0  0  0  0  0  0
    3.7646   -4.7037   28.4679 C   0  0  0  0  0  0  0  0  0  0  0  0
    2.8322   -4.3881   29.4297 N   0  0  0  0  0  0  0  0  0  0  0  0
    1.8170   -5.3062   29.4172 C   0  0  0  0  0  0  0  0  0  0  0  0
    2.0969   -6.2229   28.4320 C   0  0  0  0  0  0  0  0  0  0  0  0
    3.3083   -5.8366   27.7969 C   0  0  0  0  0  0  0  0  0  0  0  0
    4.0623   -6.3251   26.7067 C   0  0  0  0  0  0  0  0  0  0  0  0
    9.3488   -4.4781   20.6328 N   0  0  0  0  0  0  0  0  0  0  0  0
   10.9528   -4.2677   21.4478 C   0  0  0  0  0  0  0  0  0  0  0  0
   11.1862   -3.6693   22.4939 O   0  0  0  0  0  0  0  0  0  0  0  0
   12.1947   -4.8570   20.8645 C   0  0  0  0  0  0  0  0  0  0  0  0
   12.9811   -4.4101   19.7590 C   0  0  0  0  0  0  0  0  0  0  0  0
   14.2325   -4.8674   19.7774 N   0  0  0  0  0  0  0  0  0  0  0  0
   14.2684   -5.6243   20.8771 N   0  0  0  0  0  0  0  0  0  0  0  0
   13.0911   -5.6412   21.5700 C   0  0  0  0  0  0  0  0  0  0  0  0
    5.4648   -3.2609   19.9548 H   0  0  0  0  0  0  0  0  0  0  0  0
    5.4216   -2.7387   21.6889 H   0  0  0  0  0  0  0  0  0  0  0  0
    6.2543   -1.7735   20.5952 H   0  0  0  0  0  0  0  0  0  0  0  0
    7.7990   -2.9782   21.4598 H   0  0  0  0  0  0  0  0  0  0  0  0
    6.6121   -5.9292   22.5119 H   0  0  0  0  0  0  0  0  0  0  0  0
    6.3702   -4.0043   22.9430 H   0  0  0  0  0  0  0  0  0  0  0  0
    6.3774   -4.1607   24.8089 H   0  0  0  0  0  0  0  0  0  0  0  0
    6.6394   -4.0779   26.8090 H   0  0  0  0  0  0  0  0  0  0  0  0
    5.3174   -3.1983   28.6909 H   0  0  0  0  0  0  0  0  0  0  0  0
    2.8940   -3.5886   30.0472 H   0  0  0  0  0  0  0  0  0  0  0  0
    0.9900   -5.2209   30.1099 H   0  0  0  0  0  0  0  0  0  0  0  0
    1.4786   -7.0709   28.1925 H   0  0  0  0  0  0  0  0  0  0  0  0
    3.7108   -7.1794   26.1314 H   0  0  0  0  0  0  0  0  0  0  0  0
    9.4522   -5.0786   19.8441 H   0  0  0  0  0  0  0  0  0  0  0  0
   12.7294   -3.7124   18.9739 H   0  0  0  0  0  0  0  0  0  0  0  0
   15.1419   -6.0856   21.1077 H   0  0  0  0  0  0  0  0  0  0  0  0
   13.0208   -6.1199   22.5356 H   0  0  0  0  0  0  0  0  0  0  0  0
  1  2  1  0
  2  3  1  0
  3  4  1  0
  4  5  1  0
  5  6  2  0
  5  7  1  0
  7  8  2  0
  8  9  1  0
  9 10  2  0
 10 11  1  0
 11 12  1  0
 12 13  2  0
 13 14  1  0
 14 15  2  0
  2 16  1  0
 16 17  1  0
 17 18  2  0
 17 19  1  0
 19 20  1  0
 20 21  2  0
 21 22  1  0
 22 23  1  0
 15  7  1  0
 23 19  2  0
 14 10  1  0
  1 24  1  0
  1 25  1  0
  1 26  1  0
  2 27  1  0
  3 28  1  0
  3 29  1  0
  4 30  1  0
  8 31  1  0
  9 32  1  0
 11 33  1  0
 12 34  1  0
 13 35  1  0
 15 36  1  0
 16 37  1  0
 20 38  1  0
 22 39  1  0
 23 40  1  0
M  END
>  <Energy>  (710) 
356.505610124268

>  <compound_id>  (710) 
24460

>  <target_id>  (710) 
1

>  <reference_id>  (710) 
40

>  <inspiration_ids>  (710) 
[40, 122]

>  <energy_score>  (710) 
320.2325748065817

>  <distance_score>  (710) 
6.3103214296219035

>  <path>  (710) 
/opt/xchem-fragalysis-2/maxwin/BulkDock/SCRATCH/511020/C24460-P40/C24460-P40.minimised.mol

>  <scratch_subdir>  (710) 
/opt/xchem-fragalysis-2/maxwin/BulkDock/SCRATCH/511020/C24460-P40

>  <fragmenstein_runtime>  (710) 
8.110458374023438

>  <fragmenstein_outcome>  (710) 
too moved

>  <fragmenstein_mode>  (710) 
expansion

>  <fragmenstein_error>  (710) 


$$$$
C24460-P122
     RDKit          3D

 40 42  0  0  0  0  0  0  0  0999 V2000
    5.6910   -1.6719   25.8742 C   0  0  0  0  0  0  0  0  0  0  0  0
    4.8831   -2.4496   24.6168 C   0  0  0  0  0  0  0  0  0  0  0  0
    3.6413   -1.6153   24.7965 C   0  0  0  0  0  0  0  0  0  0  0  0
    2.9805   -1.8877   26.0749 N   0  0  0  0  0  0  0  0  0  0  0  0
    2.7699   -1.0598   27.2144 C   0  0  0  0  0  0  0  0  0  0  0  0
    3.1460    0.0475   27.4564 O   0  0  0  0  0  0  0  0  0  0  0  0
    1.9738   -1.7885   28.2299 C   0  0  0  0  0  0  0  0  0  0  0  0
    0.6088   -1.5364   28.3493 C   0  0  0  0  0  0  0  0  0  0  0  0
   -0.1842   -2.3218   29.1878 C   0  0  0  0  0  0  0  0  0  0  0  0
    0.4486   -3.3534   29.8896 C   0  0  0  0  0  0  0  0  0  0  0  0
   -0.0675   -4.2608   30.7817 N   0  0  0  0  0  0  0  0  0  0  0  0
    0.9143   -5.0996   31.2246 C   0  0  0  0  0  0  0  0  0  0  0  0
    2.0980   -4.7092   30.6484 C   0  0  0  0  0  0  0  0  0  0  0  0
    1.8164   -3.6121   29.7960 C   0  0  0  0  0  0  0  0  0  0  0  0
    2.6011   -2.8078   28.9574 C   0  0  0  0  0  0  0  0  0  0  0  0
    5.9588   -2.4228   23.2736 N   0  0  0  0  0  0  0  0  0  0  0  0
    7.3431   -3.6759   22.7216 C   0  0  0  0  0  0  0  0  0  0  0  0
    7.5248   -4.7435   23.2729 O   0  0  0  0  0  0  0  0  0  0  0  0
    8.7954   -3.2815   21.3048 C   0  0  0  0  0  0  0  0  0  0  0  0
   10.9117   -3.5653   21.0145 C   0  0  0  0  0  0  0  0  0  0  0  0
   11.8077   -4.6878   21.0778 N   0  0  0  0  0  0  0  0  0  0  0  0
   11.9556   -4.2855   22.2882 N   0  0  0  0  0  0  0  0  0  0  0  0
   10.7519   -3.1717   21.9775 C   0  0  0  0  0  0  0  0  0  0  0  0
    5.3451   -2.0210   26.8604 H   0  0  0  0  0  0  0  0  0  0  0  0
    6.7778   -1.8059   25.8433 H   0  0  0  0  0  0  0  0  0  0  0  0
    5.4708   -0.6028   25.9437 H   0  0  0  0  0  0  0  0  0  0  0  0
    4.4698   -3.4361   24.8089 H   0  0  0  0  0  0  0  0  0  0  0  0
    3.8211   -0.5436   24.8163 H   0  0  0  0  0  0  0  0  0  0  0  0
    2.9971   -1.9724   24.0144 H   0  0  0  0  0  0  0  0  0  0  0  0
    2.4406   -2.7358   26.1793 H   0  0  0  0  0  0  0  0  0  0  0  0
    0.1544   -0.7420   27.7623 H   0  0  0  0  0  0  0  0  0  0  0  0
   -1.2508   -2.1403   29.2716 H   0  0  0  0  0  0  0  0  0  0  0  0
   -1.0247   -4.2750   31.0989 H   0  0  0  0  0  0  0  0  0  0  0  0
    0.6928   -5.8774   31.9422 H   0  0  0  0  0  0  0  0  0  0  0  0
    3.0640   -5.1540   30.8376 H   0  0  0  0  0  0  0  0  0  0  0  0
    3.6702   -2.9675   28.8580 H   0  0  0  0  0  0  0  0  0  0  0  0
    5.9245   -1.6393   22.6217 H   0  0  0  0  0  0  0  0  0  0  0  0
   11.6691   -3.0454   20.2705 H   0  0  0  0  0  0  0  0  0  0  0  0
   12.8320   -4.0800   22.7641 H   0  0  0  0  0  0  0  0  0  0  0  0
   11.1111   -2.7272   23.0140 H   0  0  0  0  0  0  0  0  0  0  0  0
  1  2  1  0
  2  3  1  0
  3  4  1  0
  4  5  1  0
  5  6  2  0
  5  7  1  0
  7  8  2  0
  8  9  1  0
  9 10  2  0
 10 11  1  0
 11 12  1  0
 12 13  2  0
 13 14  1  0
 14 15  2  0
  2 16  1  0
 16 17  1  0
 17 18  2  0
 17 19  1  0
 19 20  1  0
 20 21  2  0
 21 22  1  0
 22 23  1  0
 15  7  1  0
 23 19  2  0
 14 10  1  0
  1 24  1  0
  1 25  1  0
  1 26  1  0
  2 27  1  0
  3 28  1  0
  3 29  1  0
  4 30  1  0
  8 31  1  0
  9 32  1  0
 11 33  1  0
 12 34  1  0
 13 35  1  0
 15 36  1  0
 16 37  1  0
 20 38  1  0
 22 39  1  0
 23 40  1  0
M  END
>  <Energy>  (711) 
968.10736552926676

>  <compound_id>  (711) 
24460

>  <target_id>  (711) 
1

>  <reference_id>  (711) 
122

>  <inspiration_ids>  (711) 
[40, 122]

>  <energy_score>  (711) 
931.8343302115804

>  <distance_score>  (711) 
5.914025556579561

>  <path>  (711) 
/opt/xchem-fragalysis-2/maxwin/BulkDock/SCRATCH/511020/C24460-P122/C24460-P122.minimised.mol

>  <scratch_subdir>  (711) 
/opt/xchem-fragalysis-2/maxwin/BulkDock/SCRATCH/511020/C24460-P122

>  <fragmenstein_runtime>  (711) 
13.936642408370972

>  <fragmenstein_outcome>  (711) 
too moved

>  <fragmenstein_mode>  (711) 
expansion

>  <fragmenstein_error>  (711) 


$$$$
C30248-P40
     RDKit          3D

 40 42  0  0  0  0  0  0  0  0999 V2000
    5.7688   -6.1689   23.9730 C   0  0  0  0  0  0  0  0  0  0  0  0
    5.9439   -4.6488   23.5743 C   0  0  0  0  0  0  0  0  0  0  0  0
    6.0719   -4.4061   25.3722 C   0  0  0  0  0  0  0  0  0  0  0  0
    5.0007   -4.5464   26.3373 N   0  0  0  0  0  0  0  0  0  0  0  0
    4.7267   -5.5736   27.2880 C   0  0  0  0  0  0  0  0  0  0  0  0
    5.2620   -6.6240   27.4799 O   0  0  0  0  0  0  0  0  0  0  0  0
    3.6546   -5.1907   28.2417 C   0  0  0  0  0  0  0  0  0  0  0  0
    4.0834   -4.9270   29.5474 C   0  0  0  0  0  0  0  0  0  0  0  0
    3.2172   -4.4040   30.5059 C   0  0  0  0  0  0  0  0  0  0  0  0
    1.9107   -4.1439   30.1026 C   0  0  0  0  0  0  0  0  0  0  0  0
    0.8717   -3.5993   30.8211 N   0  0  0  0  0  0  0  0  0  0  0  0
   -0.2163   -3.4399   30.0153 C   0  0  0  0  0  0  0  0  0  0  0  0
    0.1206   -3.8976   28.7645 C   0  0  0  0  0  0  0  0  0  0  0  0
    1.4534   -4.3841   28.8056 C   0  0  0  0  0  0  0  0  0  0  0  0
    2.3371   -4.9464   27.8585 C   0  0  0  0  0  0  0  0  0  0  0  0
    7.1821   -4.5804   22.9782 N   0  0  0  0  0  0  0  0  0  0  0  0
    7.7688   -4.5330   21.1639 C   0  0  0  0  0  0  0  0  0  0  0  0
    7.1267   -4.4633   20.1122 O   0  0  0  0  0  0  0  0  0  0  0  0
    9.8075   -4.8409   20.8201 C   0  0  0  0  0  0  0  0  0  0  0  0
   11.1637   -3.9707   21.6364 C   0  0  0  0  0  0  0  0  0  0  0  0
   12.3413   -4.6199   21.5174 C   0  0  0  0  0  0  0  0  0  0  0  0
   11.9067   -5.7966   21.0866 N   0  0  0  0  0  0  0  0  0  0  0  0
   10.5823   -5.9989   20.9294 N   0  0  0  0  0  0  0  0  0  0  0  0
    4.8191   -6.3939   24.4697 H   0  0  0  0  0  0  0  0  0  0  0  0
    6.5838   -6.5811   24.5831 H   0  0  0  0  0  0  0  0  0  0  0  0
    5.7975   -6.7896   23.0851 H   0  0  0  0  0  0  0  0  0  0  0  0
    5.8235   -3.5699   23.7629 H   0  0  0  0  0  0  0  0  0  0  0  0
    6.2950   -3.3459   25.5662 H   0  0  0  0  0  0  0  0  0  0  0  0
    6.9429   -4.9609   25.7524 H   0  0  0  0  0  0  0  0  0  0  0  0
    4.3923   -3.7563   26.5201 H   0  0  0  0  0  0  0  0  0  0  0  0
    5.1259   -5.1032   29.8142 H   0  0  0  0  0  0  0  0  0  0  0  0
    3.5636   -4.1794   31.5100 H   0  0  0  0  0  0  0  0  0  0  0  0
    0.9292   -3.3073   31.7880 H   0  0  0  0  0  0  0  0  0  0  0  0
   -1.1229   -2.9762   30.3817 H   0  0  0  0  0  0  0  0  0  0  0  0
   -0.5388   -3.8302   27.9137 H   0  0  0  0  0  0  0  0  0  0  0  0
    2.0338   -5.1517   26.8436 H   0  0  0  0  0  0  0  0  0  0  0  0
    7.8877   -4.5436   23.5713 H   0  0  0  0  0  0  0  0  0  0  0  0
   11.0505   -3.0841   22.2252 H   0  0  0  0  0  0  0  0  0  0  0  0
   13.3532   -4.4123   21.8306 H   0  0  0  0  0  0  0  0  0  0  0  0
   12.4845   -6.6193   21.0784 H   0  0  0  0  0  0  0  0  0  0  0  0
  1  2  1  0
  2  3  1  0
  3  4  1  0
  4  5  1  0
  5  6  2  0
  5  7  1  0
  7  8  2  0
  8  9  1  0
  9 10  2  0
 10 11  1  0
 11 12  1  0
 12 13  2  0
 13 14  1  0
 14 15  2  0
  2 16  1  0
 16 17  1  0
 17 18  2  0
 17 19  1  0
 19 20  1  0
 20 21  2  0
 21 22  1  0
 22 23  1  0
 15  7  1  0
 23 19  2  0
 14 10  1  0
  1 24  1  0
  1 25  1  0
  1 26  1  0
  2 27  1  0
  3 28  1  0
  3 29  1  0
  4 30  1  0
  8 31  1  0
  9 32  1  0
 11 33  1  0
 12 34  1  0
 13 35  1  0
 15 36  1  0
 16 37  1  0
 20 38  1  0
 21 39  1  0
 22 40  1  0
M  END
>  <Energy>  (712) 
418.03880051806959

>  <compound_id>  (712) 
30248

>  <target_id>  (712) 
1

>  <reference_id>  (712) 
40

>  <inspiration_ids>  (712) 
[40, 122]

>  <energy_score>  (712) 
331.7315058363621

>  <distance_score>  (712) 
5.737171848132165

>  <path>  (712) 
/opt/xchem-fragalysis-2/maxwin/BulkDock/SCRATCH/511020/C30248-P40/C30248-P40.minimised.mol

>  <scratch_subdir>  (712) 
/opt/xchem-fragalysis-2/maxwin/BulkDock/SCRATCH/511020/C30248-P40

>  <fragmenstein_runtime>  (712) 
13.557207345962524

>  <fragmenstein_outcome>  (712) 
too moved

>  <fragmenstein_mode>  (712) 
expansion

>  <fragmenstein_error>  (712) 


$$$$
C30248-P122
     RDKit          3D

 40 42  0  0  0  0  0  0  0  0999 V2000
    5.2085   -2.1993   24.5832 C   0  0  0  0  0  0  0  0  0  0  0  0
    4.3063   -1.5209   23.6399 C   0  0  0  0  0  0  0  0  0  0  0  0
    3.8101   -0.4609   25.0245 C   0  0  0  0  0  0  0  0  0  0  0  0
    3.1493   -1.1685   26.1134 N   0  0  0  0  0  0  0  0  0  0  0  0
    3.2901   -1.0508   27.5261 C   0  0  0  0  0  0  0  0  0  0  0  0
    4.0431   -0.3967   28.1852 O   0  0  0  0  0  0  0  0  0  0  0  0
    2.3689   -1.9436   28.2697 C   0  0  0  0  0  0  0  0  0  0  0  0
    0.9881   -1.8313   28.1051 C   0  0  0  0  0  0  0  0  0  0  0  0
    0.1129   -2.6772   28.7867 C   0  0  0  0  0  0  0  0  0  0  0  0
    0.6816   -3.6140   29.6513 C   0  0  0  0  0  0  0  0  0  0  0  0
    0.0794   -4.5361   30.4672 N   0  0  0  0  0  0  0  0  0  0  0  0
    1.0169   -5.2303   31.1714 C   0  0  0  0  0  0  0  0  0  0  0  0
    2.2547   -4.7537   30.8175 C   0  0  0  0  0  0  0  0  0  0  0  0
    2.0563   -3.7288   29.8583 C   0  0  0  0  0  0  0  0  0  0  0  0
    2.9197   -2.8706   29.1621 C   0  0  0  0  0  0  0  0  0  0  0  0
    5.0797   -0.6907   22.1229 N   0  0  0  0  0  0  0  0  0  0  0  0
    4.8262    0.8078   21.4745 C   0  0  0  0  0  0  0  0  0  0  0  0
    4.0175    1.6734   21.7794 O   0  0  0  0  0  0  0  0  0  0  0  0
    5.8169    1.3620   20.3394 C   0  0  0  0  0  0  0  0  0  0  0  0
    5.7848    2.7411   19.9192 C   0  0  0  0  0  0  0  0  0  0  0  0
    6.5928    2.8443   18.8165 C   0  0  0  0  0  0  0  0  0  0  0  0
    7.0499    1.5893   18.6044 N   0  0  0  0  0  0  0  0  0  0  0  0
    6.7316    0.7269   19.5814 N   0  0  0  0  0  0  0  0  0  0  0  0
    4.4813   -2.8622   25.0717 H   0  0  0  0  0  0  0  0  0  0  0  0
    5.6998   -1.6242   25.3755 H   0  0  0  0  0  0  0  0  0  0  0  0
    6.0065   -2.7465   24.1541 H   0  0  0  0  0  0  0  0  0  0  0  0
    3.5046   -2.2187   23.3742 H   0  0  0  0  0  0  0  0  0  0  0  0
    4.6839    0.0076   25.4900 H   0  0  0  0  0  0  0  0  0  0  0  0
    3.1883    0.4087   24.8174 H   0  0  0  0  0  0  0  0  0  0  0  0
    2.4542   -1.8863   25.9070 H   0  0  0  0  0  0  0  0  0  0  0  0
    0.5848   -1.0675   27.4465 H   0  0  0  0  0  0  0  0  0  0  0  0
   -0.9609   -2.5935   28.6523 H   0  0  0  0  0  0  0  0  0  0  0  0
   -0.9147   -4.6403   30.5800 H   0  0  0  0  0  0  0  0  0  0  0  0
    0.7190   -5.9822   31.8874 H   0  0  0  0  0  0  0  0  0  0  0  0
    3.1970   -5.0843   31.2316 H   0  0  0  0  0  0  0  0  0  0  0  0
    3.9957   -2.9130   29.3070 H   0  0  0  0  0  0  0  0  0  0  0  0
    5.7745   -1.1843   21.5766 H   0  0  0  0  0  0  0  0  0  0  0  0
    5.1825    3.5231   20.3621 H   0  0  0  0  0  0  0  0  0  0  0  0
    6.8422    3.6701   18.1665 H   0  0  0  0  0  0  0  0  0  0  0  0
    7.6564    1.2691   17.8577 H   0  0  0  0  0  0  0  0  0  0  0  0
  1  2  1  0
  2  3  1  0
  3  4  1  0
  4  5  1  0
  5  6  2  0
  5  7  1  0
  7  8  2  0
  8  9  1  0
  9 10  2  0
 10 11  1  0
 11 12  1  0
 12 13  2  0
 13 14  1  0
 14 15  2  0
  2 16  1  0
 16 17  1  0
 17 18  2  0
 17 19  1  0
 19 20  1  0
 20 21  2  0
 21 22  1  0
 22 23  1  0
 15  7  1  0
 23 19  2  0
 14 10  1  0
  1 24  1  0
  1 25  1  0
  1 26  1  0
  2 27  1  0
  3 28  1  0
  3 29  1  0
  4 30  1  0
  8 31  1  0
  9 32  1  0
 11 33  1  0
 12 34  1  0
 13 35  1  0
 15 36  1  0
 16 37  1  0
 20 38  1  0
 21 39  1  0
 22 40  1  0
M  END
>  <Energy>  (713) 
187.24292638757174

>  <compound_id>  (713) 
30248

>  <target_id>  (713) 
1

>  <reference_id>  (713) 
122

>  <inspiration_ids>  (713) 
[40, 122]

>  <energy_score>  (713) 
100.93563170586799

>  <distance_score>  (713) 
6.898788307171806

>  <path>  (713) 
/opt/xchem-fragalysis-2/maxwin/BulkDock/SCRATCH/511020/C30248-P122/C30248-P122.minimised.mol

>  <scratch_subdir>  (713) 
/opt/xchem-fragalysis-2/maxwin/BulkDock/SCRATCH/511020/C30248-P122

>  <fragmenstein_runtime>  (713) 
16.12292504310608

>  <fragmenstein_outcome>  (713) 
too moved

>  <fragmenstein_mode>  (713) 
expansion

>  <fragmenstein_error>  (713) 


$$$$
C24461-P40
     RDKit          3D

 34 36  0  0  0  0  0  0  0  0999 V2000
    7.5869   -4.6504   19.5960 O   0  0  0  0  0  0  0  0  0  0  0  0
    8.2374   -4.2500   20.5623 C   0  0  0  0  0  0  0  0  0  0  0  0
    7.2346   -3.3710   21.5726 C   0  0  0  0  0  0  0  0  0  0  0  0
    6.3935   -3.7037   23.0653 N   0  0  0  0  0  0  0  0  0  0  0  0
    6.2436   -5.0115   23.8712 C   0  0  0  0  0  0  0  0  0  0  0  0
    6.6051   -6.1331   23.6156 O   0  0  0  0  0  0  0  0  0  0  0  0
    5.4540   -4.8428   25.1285 C   0  0  0  0  0  0  0  0  0  0  0  0
    5.0336   -3.7488   25.8711 C   0  0  0  0  0  0  0  0  0  0  0  0
    4.0737   -4.1891   26.8300 C   0  0  0  0  0  0  0  0  0  0  0  0
    3.2484   -3.5379   27.7669 C   0  0  0  0  0  0  0  0  0  0  0  0
    2.3574   -4.2880   28.5439 C   0  0  0  0  0  0  0  0  0  0  0  0
    2.2919   -5.6708   28.4117 C   0  0  0  0  0  0  0  0  0  0  0  0
    3.1084   -6.3370   27.4920 C   0  0  0  0  0  0  0  0  0  0  0  0
    3.9826   -5.5708   26.7118 C   0  0  0  0  0  0  0  0  0  0  0  0
    4.8694   -5.9468   25.7277 N   0  0  0  0  0  0  0  0  0  0  0  0
   10.0903   -4.6088   21.0882 N   0  0  0  0  0  0  0  0  0  0  0  0
   11.0777   -5.4771   20.5432 C   0  0  0  0  0  0  0  0  0  0  0  0
   12.4181   -4.9036   20.1367 C   0  0  0  0  0  0  0  0  0  0  0  0
   13.4798   -5.3052   20.8316 N   0  0  0  0  0  0  0  0  0  0  0  0
   12.9660   -6.2150   21.6384 N   0  0  0  0  0  0  0  0  0  0  0  0
   11.6250   -6.4091   21.4611 C   0  0  0  0  0  0  0  0  0  0  0  0
    7.6279   -2.4527   21.4586 H   0  0  0  0  0  0  0  0  0  0  0  0
    6.3416   -2.9169   21.0260 H   0  0  0  0  0  0  0  0  0  0  0  0
    6.0479   -2.9296   23.6163 H   0  0  0  0  0  0  0  0  0  0  0  0
    5.3213   -2.7211   25.6944 H   0  0  0  0  0  0  0  0  0  0  0  0
    3.2881   -2.4570   27.8739 H   0  0  0  0  0  0  0  0  0  0  0  0
    1.7139   -3.7754   29.2559 H   0  0  0  0  0  0  0  0  0  0  0  0
    1.5941   -6.2306   29.0268 H   0  0  0  0  0  0  0  0  0  0  0  0
    3.0648   -7.4105   27.3628 H   0  0  0  0  0  0  0  0  0  0  0  0
    4.9974   -6.8844   25.3634 H   0  0  0  0  0  0  0  0  0  0  0  0
   10.3426   -4.1715   22.0468 H   0  0  0  0  0  0  0  0  0  0  0  0
   12.6011   -4.1232   19.4083 H   0  0  0  0  0  0  0  0  0  0  0  0
   13.5937   -6.7013   22.2702 H   0  0  0  0  0  0  0  0  0  0  0  0
   11.1550   -7.1519   22.0850 H   0  0  0  0  0  0  0  0  0  0  0  0
  1  2  2  0
  2  3  1  0
  3  4  1  0
  4  5  1  0
  5  6  2  0
  5  7  1  0
  7  8  2  0
  8  9  1  0
  9 10  2  0
 10 11  1  0
 11 12  2  0
 12 13  1  0
 13 14  2  0
 14 15  1  0
  2 16  1  0
 16 17  1  0
 17 18  1  0
 18 19  2  0
 19 20  1  0
 20 21  1  0
 15  7  1  0
 21 17  2  0
 14  9  1  0
  3 22  1  0
  3 23  1  0
  4 24  1  0
  8 25  1  0
 10 26  1  0
 11 27  1  0
 12 28  1  0
 13 29  1  0
 15 30  1  0
 16 31  1  0
 18 32  1  0
 20 33  1  0
 21 34  1  0
M  END
>  <Energy>  (714) 
244.83536947382677

>  <compound_id>  (714) 
24461

>  <target_id>  (714) 
1

>  <reference_id>  (714) 
40

>  <inspiration_ids>  (714) 
[40, 122]

>  <energy_score>  (714) 
223.62201578603265

>  <distance_score>  (714) 
7.288857965111834

>  <path>  (714) 
/opt/xchem-fragalysis-2/maxwin/BulkDock/SCRATCH/511020/C24461-P40/C24461-P40.minimised.mol

>  <scratch_subdir>  (714) 
/opt/xchem-fragalysis-2/maxwin/BulkDock/SCRATCH/511020/C24461-P40

>  <fragmenstein_runtime>  (714) 
10.57932734489441

>  <fragmenstein_outcome>  (714) 
too moved

>  <fragmenstein_mode>  (714) 
expansion

>  <fragmenstein_error>  (714) 


$$$$
C24461-P122
     RDKit          3D

 34 36  0  0  0  0  0  0  0  0999 V2000
    7.6613   -5.1455   19.8415 O   0  0  0  0  0  0  0  0  0  0  0  0
    7.7731   -4.1531   20.4393 C   0  0  0  0  0  0  0  0  0  0  0  0
    6.2003   -2.8801   21.0795 C   0  0  0  0  0  0  0  0  0  0  0  0
    5.2768   -1.9332   22.4417 N   0  0  0  0  0  0  0  0  0  0  0  0
    5.3227   -2.0548   23.9205 C   0  0  0  0  0  0  0  0  0  0  0  0
    6.0267   -2.7187   24.5321 O   0  0  0  0  0  0  0  0  0  0  0  0
    4.3218   -1.3998   24.8414 C   0  0  0  0  0  0  0  0  0  0  0  0
    3.5983   -2.2254   25.6968 C   0  0  0  0  0  0  0  0  0  0  0  0
    3.0485   -1.5460   26.7870 C   0  0  0  0  0  0  0  0  0  0  0  0
    2.3084   -1.9324   27.9173 C   0  0  0  0  0  0  0  0  0  0  0  0
    1.8733   -0.9446   28.7982 C   0  0  0  0  0  0  0  0  0  0  0  0
    2.1654    0.3962   28.5508 C   0  0  0  0  0  0  0  0  0  0  0  0
    2.8943    0.7922   27.4168 C   0  0  0  0  0  0  0  0  0  0  0  0
    3.3368   -0.2121   26.5482 C   0  0  0  0  0  0  0  0  0  0  0  0
    4.0025   -0.1665   25.3323 N   0  0  0  0  0  0  0  0  0  0  0  0
    8.9790   -3.4285   20.9464 N   0  0  0  0  0  0  0  0  0  0  0  0
   10.9990   -3.8802   21.0040 C   0  0  0  0  0  0  0  0  0  0  0  0
   11.9856   -3.7049   22.2636 C   0  0  0  0  0  0  0  0  0  0  0  0
   13.2315   -4.1725   22.1658 N   0  0  0  0  0  0  0  0  0  0  0  0
   13.2330   -4.6891   20.9581 N   0  0  0  0  0  0  0  0  0  0  0  0
   11.9835   -4.8253   20.4475 C   0  0  0  0  0  0  0  0  0  0  0  0
    6.4068   -3.3405   22.0681 H   0  0  0  0  0  0  0  0  0  0  0  0
    6.6162   -1.8864   20.7895 H   0  0  0  0  0  0  0  0  0  0  0  0
    4.6138   -1.2044   22.1981 H   0  0  0  0  0  0  0  0  0  0  0  0
    3.5602   -3.2698   25.5068 H   0  0  0  0  0  0  0  0  0  0  0  0
    2.0684   -2.9753   28.0872 H   0  0  0  0  0  0  0  0  0  0  0  0
    1.2978   -1.2219   29.6768 H   0  0  0  0  0  0  0  0  0  0  0  0
    1.8143    1.1552   29.2462 H   0  0  0  0  0  0  0  0  0  0  0  0
    3.1018    1.8386   27.2256 H   0  0  0  0  0  0  0  0  0  0  0  0
    4.0397    0.6143   24.7095 H   0  0  0  0  0  0  0  0  0  0  0  0
    8.7131   -2.7169   21.4480 H   0  0  0  0  0  0  0  0  0  0  0  0
   11.7521   -3.2277   23.2087 H   0  0  0  0  0  0  0  0  0  0  0  0
   14.0997   -5.0713   20.5974 H   0  0  0  0  0  0  0  0  0  0  0  0
   11.9230   -5.4176   19.5744 H   0  0  0  0  0  0  0  0  0  0  0  0
  1  2  2  0
  2  3  1  0
  3  4  1  0
  4  5  1  0
  5  6  2  0
  5  7  1  0
  7  8  2  0
  8  9  1  0
  9 10  2  0
 10 11  1  0
 11 12  2  0
 12 13  1  0
 13 14  2  0
 14 15  1  0
  2 16  1  0
 16 17  1  0
 17 18  1  0
 18 19  2  0
 19 20  1  0
 20 21  1  0
 15  7  1  0
 21 17  2  0
 14  9  1  0
  3 22  1  0
  3 23  1  0
  4 24  1  0
  8 25  1  0
 10 26  1  0
 11 27  1  0
 12 28  1  0
 13 29  1  0
 15 30  1  0
 16 31  1  0
 18 32  1  0
 20 33  1  0
 21 34  1  0
M  END
>  <Energy>  (715) 
454.45962024727862

>  <compound_id>  (715) 
24461

>  <target_id>  (715) 
1

>  <reference_id>  (715) 
122

>  <inspiration_ids>  (715) 
[40, 122]

>  <energy_score>  (715) 
433.24626655947753

>  <distance_score>  (715) 
7.552369685660914

>  <path>  (715) 
/opt/xchem-fragalysis-2/maxwin/BulkDock/SCRATCH/511020/C24461-P122/C24461-P122.minimised.mol

>  <scratch_subdir>  (715) 
/opt/xchem-fragalysis-2/maxwin/BulkDock/SCRATCH/511020/C24461-P122

>  <fragmenstein_runtime>  (715) 
10.703760623931885

>  <fragmenstein_outcome>  (715) 
too moved

>  <fragmenstein_mode>  (715) 
expansion

>  <fragmenstein_error>  (715) 


$$$$
C24462-P40
     RDKit          3D

 37 39  0  0  0  0  0  0  0  0999 V2000
    1.1463   -5.2787   29.8147 C   0  0  0  0  0  0  0  0  0  0  0  0
    2.0287   -4.5356   28.8566 C   0  0  0  0  0  0  0  0  0  0  0  0
    1.9739   -3.1401   28.8005 C   0  0  0  0  0  0  0  0  0  0  0  0
    2.8054   -2.4097   27.9383 C   0  0  0  0  0  0  0  0  0  0  0  0
    3.7045   -3.0890   27.0965 C   0  0  0  0  0  0  0  0  0  0  0  0
    4.6137   -2.6836   26.0604 C   0  0  0  0  0  0  0  0  0  0  0  0
    5.1417   -3.8222   25.4882 C   0  0  0  0  0  0  0  0  0  0  0  0
    5.9358   -4.1713   24.2908 C   0  0  0  0  0  0  0  0  0  0  0  0
    6.3431   -5.3210   24.2781 O   0  0  0  0  0  0  0  0  0  0  0  0
    6.0362   -2.9935   23.1441 N   0  0  0  0  0  0  0  0  0  0  0  0
    6.6967   -3.0505   21.3797 C   0  0  0  0  0  0  0  0  0  0  0  0
    7.6103   -4.3452   21.4062 C   0  0  0  0  0  0  0  0  0  0  0  0
    7.1083   -5.2092   22.1661 O   0  0  0  0  0  0  0  0  0  0  0  0
    9.1142   -4.3299   20.6045 N   0  0  0  0  0  0  0  0  0  0  0  0
   10.4980   -5.4443   20.7170 C   0  0  0  0  0  0  0  0  0  0  0  0
   10.9868   -6.7412   21.3537 C   0  0  0  0  0  0  0  0  0  0  0  0
   12.2529   -6.8103   21.7692 N   0  0  0  0  0  0  0  0  0  0  0  0
   12.7249   -5.6185   21.4621 N   0  0  0  0  0  0  0  0  0  0  0  0
   11.7527   -4.7815   21.0278 C   0  0  0  0  0  0  0  0  0  0  0  0
    4.6966   -4.8775   26.2723 N   0  0  0  0  0  0  0  0  0  0  0  0
    3.7512   -4.4759   27.1792 C   0  0  0  0  0  0  0  0  0  0  0  0
    2.9475   -5.2249   28.0523 C   0  0  0  0  0  0  0  0  0  0  0  0
    0.1659   -4.7971   29.8941 H   0  0  0  0  0  0  0  0  0  0  0  0
    0.9750   -6.3055   29.4742 H   0  0  0  0  0  0  0  0  0  0  0  0
    1.6101   -5.3091   30.8053 H   0  0  0  0  0  0  0  0  0  0  0  0
    1.2731   -2.5923   29.4284 H   0  0  0  0  0  0  0  0  0  0  0  0
    2.7281   -1.3266   27.8972 H   0  0  0  0  0  0  0  0  0  0  0  0
    4.7803   -1.6699   25.7211 H   0  0  0  0  0  0  0  0  0  0  0  0
    5.5168   -2.1752   23.4496 H   0  0  0  0  0  0  0  0  0  0  0  0
    7.4720   -2.3891   21.3211 H   0  0  0  0  0  0  0  0  0  0  0  0
    5.8112   -2.7999   20.7596 H   0  0  0  0  0  0  0  0  0  0  0  0
    9.2332   -3.4973   20.1646 H   0  0  0  0  0  0  0  0  0  0  0  0
   10.4848   -7.6900   21.4427 H   0  0  0  0  0  0  0  0  0  0  0  0
   13.6932   -5.4036   21.6795 H   0  0  0  0  0  0  0  0  0  0  0  0
   12.0166   -3.7341   21.0340 H   0  0  0  0  0  0  0  0  0  0  0  0
    4.9648   -5.8320   26.0620 H   0  0  0  0  0  0  0  0  0  0  0  0
    3.0374   -6.3051   28.0866 H   0  0  0  0  0  0  0  0  0  0  0  0
  1  2  1  0
  2  3  2  0
  3  4  1  0
  4  5  2  0
  5  6  1  0
  6  7  2  0
  7  8  1  0
  8  9  2  0
  8 10  1  0
 10 11  1  0
 11 12  1  0
 12 13  2  0
 12 14  1  0
 14 15  1  0
 15 16  1  0
 16 17  2  0
 17 18  1  0
 18 19  1  0
  7 20  1  0
 20 21  1  0
 21 22  2  0
 22  2  1  0
 21  5  1  0
 19 15  2  0
  1 23  1  0
  1 24  1  0
  1 25  1  0
  3 26  1  0
  4 27  1  0
  6 28  1  0
 10 29  1  0
 11 30  1  0
 11 31  1  0
 14 32  1  0
 16 33  1  0
 18 34  1  0
 19 35  1  0
 20 36  1  0
 22 37  1  0
M  END
>  <Energy>  (716) 
235.48329297375059

>  <compound_id>  (716) 
24462

>  <target_id>  (716) 
1

>  <reference_id>  (716) 
40

>  <inspiration_ids>  (716) 
[40, 122]

>  <energy_score>  (716) 
185.25982395296506

>  <distance_score>  (716) 
7.263562260797

>  <path>  (716) 
/opt/xchem-fragalysis-2/maxwin/BulkDock/SCRATCH/511020/C24462-P40/C24462-P40.minimised.mol

>  <scratch_subdir>  (716) 
/opt/xchem-fragalysis-2/maxwin/BulkDock/SCRATCH/511020/C24462-P40

>  <fragmenstein_runtime>  (716) 
13.637175559997559

>  <fragmenstein_outcome>  (716) 
too moved

>  <fragmenstein_mode>  (716) 
expansion

>  <fragmenstein_error>  (716) 


$$$$
C24462-P122
     RDKit          3D

 37 39  0  0  0  0  0  0  0  0999 V2000
    0.0164   -5.5702   30.1781 C   0  0  0  0  0  0  0  0  0  0  0  0
   -0.3694   -5.9453   28.7915 C   0  0  0  0  0  0  0  0  0  0  0  0
   -1.4738   -6.6613   28.4666 C   0  0  0  0  0  0  0  0  0  0  0  0
   -1.9709   -6.7111   27.1117 C   0  0  0  0  0  0  0  0  0  0  0  0
   -1.1981   -6.3401   25.9955 C   0  0  0  0  0  0  0  0  0  0  0  0
   -0.7847   -6.5954   24.5815 C   0  0  0  0  0  0  0  0  0  0  0  0
    0.2547   -7.5515   24.5367 C   0  0  0  0  0  0  0  0  0  0  0  0
    1.8977   -7.7142   23.6853 C   0  0  0  0  0  0  0  0  0  0  0  0
    1.8058   -8.3234   22.6094 O   0  0  0  0  0  0  0  0  0  0  0  0
    3.4617   -6.8848   24.3723 N   0  0  0  0  0  0  0  0  0  0  0  0
    5.3329   -6.5962   23.6041 C   0  0  0  0  0  0  0  0  0  0  0  0
    7.1671   -5.6740   23.1394 C   0  0  0  0  0  0  0  0  0  0  0  0
    8.0557   -6.4276   23.3982 O   0  0  0  0  0  0  0  0  0  0  0  0
    7.4251   -4.0261   22.2395 N   0  0  0  0  0  0  0  0  0  0  0  0
    8.9139   -3.2481   21.3946 C   0  0  0  0  0  0  0  0  0  0  0  0
   10.9822   -3.6146   21.0347 C   0  0  0  0  0  0  0  0  0  0  0  0
   11.8812   -4.6889   21.1667 N   0  0  0  0  0  0  0  0  0  0  0  0
   11.9638   -4.2848   22.3862 N   0  0  0  0  0  0  0  0  0  0  0  0
   10.8346   -3.1685   22.1097 C   0  0  0  0  0  0  0  0  0  0  0  0
    0.0349   -7.6160   26.0754 N   0  0  0  0  0  0  0  0  0  0  0  0
    0.0484   -6.1556   26.4800 C   0  0  0  0  0  0  0  0  0  0  0  0
    0.1990   -5.4223   27.6837 C   0  0  0  0  0  0  0  0  0  0  0  0
    1.1011   -5.4425   30.2569 H   0  0  0  0  0  0  0  0  0  0  0  0
   -0.4664   -4.6331   30.4715 H   0  0  0  0  0  0  0  0  0  0  0  0
   -0.2726   -6.3527   30.8876 H   0  0  0  0  0  0  0  0  0  0  0  0
   -2.0679   -7.0425   29.2772 H   0  0  0  0  0  0  0  0  0  0  0  0
   -2.9566   -7.1080   26.9738 H   0  0  0  0  0  0  0  0  0  0  0  0
   -0.4170   -5.7784   23.9755 H   0  0  0  0  0  0  0  0  0  0  0  0
    3.2435   -6.4026   25.1896 H   0  0  0  0  0  0  0  0  0  0  0  0
    5.7937   -7.3954   24.2042 H   0  0  0  0  0  0  0  0  0  0  0  0
    5.3900   -5.6898   24.1677 H   0  0  0  0  0  0  0  0  0  0  0  0
    6.5390   -3.5089   22.2085 H   0  0  0  0  0  0  0  0  0  0  0  0
   11.6988   -3.0633   20.3176 H   0  0  0  0  0  0  0  0  0  0  0  0
   12.8084   -4.1891   22.9467 H   0  0  0  0  0  0  0  0  0  0  0  0
   11.1528   -2.6930   23.1184 H   0  0  0  0  0  0  0  0  0  0  0  0
    0.5747   -8.2228   26.6492 H   0  0  0  0  0  0  0  0  0  0  0  0
    0.8557   -4.5546   27.7274 H   0  0  0  0  0  0  0  0  0  0  0  0
  1  2  1  0
  2  3  2  0
  3  4  1  0
  4  5  2  0
  5  6  1  0
  6  7  2  0
  7  8  1  0
  8  9  2  0
  8 10  1  0
 10 11  1  0
 11 12  1  0
 12 13  2  0
 12 14  1  0
 14 15  1  0
 15 16  1  0
 16 17  2  0
 17 18  1  0
 18 19  1  0
  7 20  1  0
 20 21  1  0
 21 22  2  0
 22  2  1  0
 21  5  1  0
 19 15  2  0
  1 23  1  0
  1 24  1  0
  1 25  1  0
  3 26  1  0
  4 27  1  0
  6 28  1  0
 10 29  1  0
 11 30  1  0
 11 31  1  0
 14 32  1  0
 16 33  1  0
 18 34  1  0
 19 35  1  0
 20 36  1  0
 22 37  1  0
M  END
>  <Energy>  (717) 
1316.8888492619533

>  <compound_id>  (717) 
24462

>  <target_id>  (717) 
1

>  <reference_id>  (717) 
122

>  <inspiration_ids>  (717) 
[40, 122]

>  <energy_score>  (717) 
1266.665380241173

>  <distance_score>  (717) 
6.2262220370540335

>  <path>  (717) 
/opt/xchem-fragalysis-2/maxwin/BulkDock/SCRATCH/511020/C24462-P122/C24462-P122.minimised.mol

>  <scratch_subdir>  (717) 
/opt/xchem-fragalysis-2/maxwin/BulkDock/SCRATCH/511020/C24462-P122

>  <fragmenstein_runtime>  (717) 
13.413772106170654

>  <fragmenstein_outcome>  (717) 
too moved

>  <fragmenstein_mode>  (717) 
expansion

>  <fragmenstein_error>  (717) 


$$$$
C24463-P40
     RDKit          3D

 41 43  0  0  0  0  0  0  0  0999 V2000
    6.6869   -7.6503   25.7205 O   0  0  0  0  0  0  0  0  0  0  0  0
    6.0145   -6.7108   25.4136 C   0  0  0  0  0  0  0  0  0  0  0  0
    5.9866   -5.9334   24.2148 N   0  0  0  0  0  0  0  0  0  0  0  0
    6.7082   -6.0963   22.9308 C   0  0  0  0  0  0  0  0  0  0  0  0
    7.4509   -4.6919   21.7209 C   0  0  0  0  0  0  0  0  0  0  0  0
    6.3697   -3.4494   22.7558 C   0  0  0  0  0  0  0  0  0  0  0  0
    5.8258   -3.8018   24.1577 O   0  0  0  0  0  0  0  0  0  0  0  0
    9.1939   -4.5006   20.7200 N   0  0  0  0  0  0  0  0  0  0  0  0
   10.7635   -5.3716   20.9080 C   0  0  0  0  0  0  0  0  0  0  0  0
   10.9825   -6.3153   21.6486 O   0  0  0  0  0  0  0  0  0  0  0  0
   12.1292   -4.9110   20.2121 C   0  0  0  0  0  0  0  0  0  0  0  0
   13.3285   -4.8911   21.0027 C   0  0  0  0  0  0  0  0  0  0  0  0
   14.4228   -4.4953   20.3492 N   0  0  0  0  0  0  0  0  0  0  0  0
   13.9815   -4.3278   19.1006 N   0  0  0  0  0  0  0  0  0  0  0  0
   12.6312   -4.4554   18.9876 C   0  0  0  0  0  0  0  0  0  0  0  0
    4.9691   -6.2239   26.3831 C   0  0  0  0  0  0  0  0  0  0  0  0
    3.8956   -7.0611   26.6780 C   0  0  0  0  0  0  0  0  0  0  0  0
    2.8819   -6.6493   27.5540 C   0  0  0  0  0  0  0  0  0  0  0  0
    2.8833   -5.3426   28.0582 C   0  0  0  0  0  0  0  0  0  0  0  0
    1.9902   -4.5982   28.8702 C   0  0  0  0  0  0  0  0  0  0  0  0
    2.5121   -3.3327   28.9987 C   0  0  0  0  0  0  0  0  0  0  0  0
    3.7000   -3.2905   28.3162 N   0  0  0  0  0  0  0  0  0  0  0  0
    3.9488   -4.5094   27.7289 C   0  0  0  0  0  0  0  0  0  0  0  0
    5.0236   -4.9315   26.9297 C   0  0  0  0  0  0  0  0  0  0  0  0
    5.2313   -5.2651   24.2739 H   0  0  0  0  0  0  0  0  0  0  0  0
    6.1558   -6.8064   22.3492 H   0  0  0  0  0  0  0  0  0  0  0  0
    7.3723   -6.7408   23.4680 H   0  0  0  0  0  0  0  0  0  0  0  0
    7.1480   -4.6623   20.5728 H   0  0  0  0  0  0  0  0  0  0  0  0
    6.5004   -2.5675   23.2697 H   0  0  0  0  0  0  0  0  0  0  0  0
    5.6630   -2.9376   22.0579 H   0  0  0  0  0  0  0  0  0  0  0  0
    6.6486   -4.0072   24.6562 H   0  0  0  0  0  0  0  0  0  0  0  0
    9.2680   -3.8565   20.0208 H   0  0  0  0  0  0  0  0  0  0  0  0
   13.4180   -5.1545   22.0496 H   0  0  0  0  0  0  0  0  0  0  0  0
   14.6552   -4.1295   18.3693 H   0  0  0  0  0  0  0  0  0  0  0  0
   12.1704   -4.2895   18.0245 H   0  0  0  0  0  0  0  0  0  0  0  0
    3.8476   -8.0327   26.1921 H   0  0  0  0  0  0  0  0  0  0  0  0
    2.0715   -7.3122   27.8119 H   0  0  0  0  0  0  0  0  0  0  0  0
    1.0556   -4.9340   29.2983 H   0  0  0  0  0  0  0  0  0  0  0  0
    2.1435   -2.4557   29.5149 H   0  0  0  0  0  0  0  0  0  0  0  0
    4.3006   -2.4802   28.2335 H   0  0  0  0  0  0  0  0  0  0  0  0
    5.8523   -4.2663   26.7109 H   0  0  0  0  0  0  0  0  0  0  0  0
  1  2  2  0
  2  3  1  0
  3  4  1  0
  4  5  1  0
  5  6  1  0
  6  7  1  0
  5  8  1  0
  8  9  1  0
  9 10  2  0
  9 11  1  0
 11 12  1  0
 12 13  2  0
 13 14  1  0
 14 15  1  0
  2 16  1  0
 16 17  2  0
 17 18  1  0
 18 19  2  0
 19 20  1  0
 20 21  2  0
 21 22  1  0
 22 23  1  0
 23 24  2  0
 15 11  2  0
 24 16  1  0
 23 19  1  0
  3 25  1  0
  4 26  1  0
  4 27  1  0
  5 28  1  0
  6 29  1  0
  6 30  1  0
  7 31  1  0
  8 32  1  0
 12 33  1  0
 14 34  1  0
 15 35  1  0
 17 36  1  0
 18 37  1  0
 20 38  1  0
 21 39  1  0
 22 40  1  0
 24 41  1  0
M  END
>  <Energy>  (718) 
426.91534012070804

>  <compound_id>  (718) 
24463

>  <target_id>  (718) 
1

>  <reference_id>  (718) 
40

>  <inspiration_ids>  (718) 
[40, 122]

>  <energy_score>  (718) 
361.2730258405544

>  <distance_score>  (718) 
4.882302643867195

>  <path>  (718) 
/opt/xchem-fragalysis-2/maxwin/BulkDock/SCRATCH/511020/C24463-P40/C24463-P40.minimised.mol

>  <scratch_subdir>  (718) 
/opt/xchem-fragalysis-2/maxwin/BulkDock/SCRATCH/511020/C24463-P40

>  <fragmenstein_runtime>  (718) 
10.807097434997559

>  <fragmenstein_outcome>  (718) 
too moved

>  <fragmenstein_mode>  (718) 
expansion

>  <fragmenstein_error>  (718) 


$$$$
C24463-P122
     RDKit          3D

 41 43  0  0  0  0  0  0  0  0999 V2000
    5.3224   -0.7051   26.6410 O   0  0  0  0  0  0  0  0  0  0  0  0
    4.5960   -1.5626   26.2056 C   0  0  0  0  0  0  0  0  0  0  0  0
    4.6281   -2.2905   24.9198 N   0  0  0  0  0  0  0  0  0  0  0  0
    5.6976   -2.2632   23.7344 C   0  0  0  0  0  0  0  0  0  0  0  0
    5.7264   -1.8051   21.7481 C   0  0  0  0  0  0  0  0  0  0  0  0
    4.6611   -1.0381   22.3272 C   0  0  0  0  0  0  0  0  0  0  0  0
    4.7171    0.3011   21.8599 O   0  0  0  0  0  0  0  0  0  0  0  0
    7.0283   -0.9540   20.4460 N   0  0  0  0  0  0  0  0  0  0  0  0
    6.8745   -0.6015   18.7030 C   0  0  0  0  0  0  0  0  0  0  0  0
    5.9299   -0.9285   18.0046 O   0  0  0  0  0  0  0  0  0  0  0  0
    8.0734    0.1116   17.7283 C   0  0  0  0  0  0  0  0  0  0  0  0
    8.5044   -0.4182   16.4160 C   0  0  0  0  0  0  0  0  0  0  0  0
    9.4688    0.2998   15.8414 N   0  0  0  0  0  0  0  0  0  0  0  0
    9.2551    1.4951   16.3751 N   0  0  0  0  0  0  0  0  0  0  0  0
    8.3696    1.4449   17.4092 C   0  0  0  0  0  0  0  0  0  0  0  0
    3.5995   -1.9665   27.2455 C   0  0  0  0  0  0  0  0  0  0  0  0
    4.1654   -2.5371   28.4063 C   0  0  0  0  0  0  0  0  0  0  0  0
    3.3927   -3.0961   29.4398 C   0  0  0  0  0  0  0  0  0  0  0  0
    2.0003   -3.0861   29.3019 C   0  0  0  0  0  0  0  0  0  0  0  0
    0.9254   -3.6154   30.0638 C   0  0  0  0  0  0  0  0  0  0  0  0
   -0.2414   -3.2224   29.4531 C   0  0  0  0  0  0  0  0  0  0  0  0
    0.0865   -2.4759   28.3540 N   0  0  0  0  0  0  0  0  0  0  0  0
    1.4521   -2.4120   28.2124 C   0  0  0  0  0  0  0  0  0  0  0  0
    2.2350   -1.8083   27.2114 C   0  0  0  0  0  0  0  0  0  0  0  0
    3.8119   -2.8856   24.8554 H   0  0  0  0  0  0  0  0  0  0  0  0
    6.3661   -3.1500   23.9390 H   0  0  0  0  0  0  0  0  0  0  0  0
    6.1253   -1.5645   24.4165 H   0  0  0  0  0  0  0  0  0  0  0  0
    6.0829   -0.9409   22.0605 H   0  0  0  0  0  0  0  0  0  0  0  0
    4.4430   -1.0209   23.4123 H   0  0  0  0  0  0  0  0  0  0  0  0
    3.8747   -1.7421   22.8383 H   0  0  0  0  0  0  0  0  0  0  0  0
    5.3473    0.1857   21.1471 H   0  0  0  0  0  0  0  0  0  0  0  0
    7.9300   -0.6510   20.7622 H   0  0  0  0  0  0  0  0  0  0  0  0
    8.2068   -1.3305   15.9128 H   0  0  0  0  0  0  0  0  0  0  0  0
    9.6884    2.3076   15.9488 H   0  0  0  0  0  0  0  0  0  0  0  0
    7.9527    2.3639   17.8001 H   0  0  0  0  0  0  0  0  0  0  0  0
    5.2528   -2.5892   28.4811 H   0  0  0  0  0  0  0  0  0  0  0  0
    3.8714   -3.5579   30.2968 H   0  0  0  0  0  0  0  0  0  0  0  0
    1.0009   -4.1977   30.9737 H   0  0  0  0  0  0  0  0  0  0  0  0
   -1.2758   -3.3790   29.7156 H   0  0  0  0  0  0  0  0  0  0  0  0
   -0.5760   -2.0550   27.7177 H   0  0  0  0  0  0  0  0  0  0  0  0
    1.7972   -1.2379   26.4235 H   0  0  0  0  0  0  0  0  0  0  0  0
  1  2  2  0
  2  3  1  0
  3  4  1  0
  4  5  1  0
  5  6  1  0
  6  7  1  0
  5  8  1  0
  8  9  1  0
  9 10  2  0
  9 11  1  0
 11 12  1  0
 12 13  2  0
 13 14  1  0
 14 15  1  0
  2 16  1  0
 16 17  2  0
 17 18  1  0
 18 19  2  0
 19 20  1  0
 20 21  2  0
 21 22  1  0
 22 23  1  0
 23 24  2  0
 15 11  2  0
 24 16  1  0
 23 19  1  0
  3 25  1  0
  4 26  1  0
  4 27  1  0
  5 28  1  0
  6 29  1  0
  6 30  1  0
  7 31  1  0
  8 32  1  0
 12 33  1  0
 14 34  1  0
 15 35  1  0
 17 36  1  0
 18 37  1  0
 20 38  1  0
 21 39  1  0
 22 40  1  0
 24 41  1  0
M  END
>  <Energy>  (719) 
545.34282421964383

>  <compound_id>  (719) 
24463

>  <target_id>  (719) 
1

>  <reference_id>  (719) 
122

>  <inspiration_ids>  (719) 
[40, 122]

>  <energy_score>  (719) 
479.70050993948007

>  <distance_score>  (719) 
5.117891154592666

>  <path>  (719) 
/opt/xchem-fragalysis-2/maxwin/BulkDock/SCRATCH/511020/C24463-P122/C24463-P122.minimised.mol

>  <scratch_subdir>  (719) 
/opt/xchem-fragalysis-2/maxwin/BulkDock/SCRATCH/511020/C24463-P122

>  <fragmenstein_runtime>  (719) 
8.677119016647339

>  <fragmenstein_outcome>  (719) 
too moved

>  <fragmenstein_mode>  (719) 
expansion

>  <fragmenstein_error>  (719) 


$$$$
C30249-P40
     RDKit          3D

 41 43  0  0  0  0  0  0  0  0999 V2000
    5.3253   -2.8403   24.7847 O   0  0  0  0  0  0  0  0  0  0  0  0
    5.0340   -1.6790   24.8292 C   0  0  0  0  0  0  0  0  0  0  0  0
    4.9294   -0.6793   23.7579 N   0  0  0  0  0  0  0  0  0  0  0  0
    5.0687   -0.8327   22.1050 C   0  0  0  0  0  0  0  0  0  0  0  0
    6.4043   -1.1468   20.6044 C   0  0  0  0  0  0  0  0  0  0  0  0
    5.4899   -2.6365   19.7829 C   0  0  0  0  0  0  0  0  0  0  0  0
    4.8521   -2.0977   18.2227 O   0  0  0  0  0  0  0  0  0  0  0  0
    7.0671   -0.1280   19.2452 N   0  0  0  0  0  0  0  0  0  0  0  0
    8.0633    0.9223   19.2312 C   0  0  0  0  0  0  0  0  0  0  0  0
    8.6532    1.4518   20.1249 O   0  0  0  0  0  0  0  0  0  0  0  0
    8.4458    1.2907   17.8290 C   0  0  0  0  0  0  0  0  0  0  0  0
    8.8923    2.5301   17.3119 C   0  0  0  0  0  0  0  0  0  0  0  0
    9.2829    2.2727   16.0173 C   0  0  0  0  0  0  0  0  0  0  0  0
    9.0624    0.9450   15.8097 N   0  0  0  0  0  0  0  0  0  0  0  0
    8.6833    0.3034   16.9261 N   0  0  0  0  0  0  0  0  0  0  0  0
    4.6271   -1.3036   26.2394 C   0  0  0  0  0  0  0  0  0  0  0  0
    5.1789   -2.1187   27.2561 C   0  0  0  0  0  0  0  0  0  0  0  0
    4.4954   -2.4138   28.4444 C   0  0  0  0  0  0  0  0  0  0  0  0
    3.1912   -1.9263   28.5906 C   0  0  0  0  0  0  0  0  0  0  0  0
    2.1545   -2.1651   29.5324 C   0  0  0  0  0  0  0  0  0  0  0  0
    1.0510   -1.4589   29.1182 C   0  0  0  0  0  0  0  0  0  0  0  0
    1.3956   -0.7612   27.9897 N   0  0  0  0  0  0  0  0  0  0  0  0
    2.7013   -1.0323   27.6367 C   0  0  0  0  0  0  0  0  0  0  0  0
    3.4382   -0.6259   26.5013 C   0  0  0  0  0  0  0  0  0  0  0  0
    4.5779    0.1854   24.1448 H   0  0  0  0  0  0  0  0  0  0  0  0
    4.5504   -0.0105   21.6621 H   0  0  0  0  0  0  0  0  0  0  0  0
    4.9401   -1.8772   22.3960 H   0  0  0  0  0  0  0  0  0  0  0  0
    7.2997   -1.5289   20.8985 H   0  0  0  0  0  0  0  0  0  0  0  0
    5.8698   -3.6545   19.5451 H   0  0  0  0  0  0  0  0  0  0  0  0
    4.8524   -3.0290   20.5222 H   0  0  0  0  0  0  0  0  0  0  0  0
    5.2967   -1.2379   18.1485 H   0  0  0  0  0  0  0  0  0  0  0  0
    6.7234   -0.2683   18.3089 H   0  0  0  0  0  0  0  0  0  0  0  0
    8.9426    3.4742   17.8359 H   0  0  0  0  0  0  0  0  0  0  0  0
    9.6791    2.9099   15.2414 H   0  0  0  0  0  0  0  0  0  0  0  0
    9.1740    0.4101   14.9490 H   0  0  0  0  0  0  0  0  0  0  0  0
    6.1117   -2.6513   27.0563 H   0  0  0  0  0  0  0  0  0  0  0  0
    4.9265   -3.1023   29.1639 H   0  0  0  0  0  0  0  0  0  0  0  0
    2.2042   -2.8099   30.3992 H   0  0  0  0  0  0  0  0  0  0  0  0
    0.0514   -1.3854   29.5251 H   0  0  0  0  0  0  0  0  0  0  0  0
    0.7588   -0.1966   27.4438 H   0  0  0  0  0  0  0  0  0  0  0  0
    2.9918    0.0046   25.7498 H   0  0  0  0  0  0  0  0  0  0  0  0
  1  2  2  0
  2  3  1  0
  3  4  1  0
  4  5  1  0
  5  6  1  0
  6  7  1  0
  5  8  1  0
  8  9  1  0
  9 10  2  0
  9 11  1  0
 11 12  1  0
 12 13  2  0
 13 14  1  0
 14 15  1  0
  2 16  1  0
 16 17  2  0
 17 18  1  0
 18 19  2  0
 19 20  1  0
 20 21  2  0
 21 22  1  0
 22 23  1  0
 23 24  2  0
 15 11  2  0
 24 16  1  0
 23 19  1  0
  3 25  1  0
  4 26  1  0
  4 27  1  0
  5 28  1  0
  6 29  1  0
  6 30  1  0
  7 31  1  0
  8 32  1  0
 12 33  1  0
 13 34  1  0
 14 35  1  0
 17 36  1  0
 18 37  1  0
 20 38  1  0
 21 39  1  0
 22 40  1  0
 24 41  1  0
M  END
>  <Energy>  (720) 
339.72721849748507

>  <compound_id>  (720) 
30249

>  <target_id>  (720) 
1

>  <reference_id>  (720) 
40

>  <inspiration_ids>  (720) 
[40, 122]

>  <energy_score>  (720) 
235.79561005372562

>  <distance_score>  (720) 
6.098534776176093

>  <path>  (720) 
/opt/xchem-fragalysis-2/maxwin/BulkDock/SCRATCH/511020/C30249-P40/C30249-P40.minimised.mol

>  <scratch_subdir>  (720) 
/opt/xchem-fragalysis-2/maxwin/BulkDock/SCRATCH/511020/C30249-P40

>  <fragmenstein_runtime>  (720) 
13.67679214477539

>  <fragmenstein_outcome>  (720) 
too moved

>  <fragmenstein_mode>  (720) 
expansion

>  <fragmenstein_error>  (720) 


$$$$
C30249-P122
     RDKit          3D

 41 43  0  0  0  0  0  0  0  0999 V2000
    2.9140   -3.2183   22.9343 O   0  0  0  0  0  0  0  0  0  0  0  0
    4.0281   -2.6901   22.9699 C   0  0  0  0  0  0  0  0  0  0  0  0
    5.2913   -2.9809   21.4351 N   0  0  0  0  0  0  0  0  0  0  0  0
    5.1735   -4.1702   19.7457 C   0  0  0  0  0  0  0  0  0  0  0  0
    5.7131   -5.5292   18.1228 C   0  0  0  0  0  0  0  0  0  0  0  0
    5.0452   -6.8020   17.6434 C   0  0  0  0  0  0  0  0  0  0  0  0
    5.1833   -7.0035   16.2340 O   0  0  0  0  0  0  0  0  0  0  0  0
    7.1419   -5.5002   16.7456 N   0  0  0  0  0  0  0  0  0  0  0  0
    7.9221   -3.9916   15.7658 C   0  0  0  0  0  0  0  0  0  0  0  0
    7.4393   -2.8941   15.8783 O   0  0  0  0  0  0  0  0  0  0  0  0
    9.2974   -3.8494   14.9048 C   0  0  0  0  0  0  0  0  0  0  0  0
    9.6554   -2.3376   14.9201 C   0  0  0  0  0  0  0  0  0  0  0  0
   11.0064   -2.1519   14.9818 C   0  0  0  0  0  0  0  0  0  0  0  0
   11.4766   -3.3968   14.9018 N   0  0  0  0  0  0  0  0  0  0  0  0
   10.5607   -4.3648   14.8223 N   0  0  0  0  0  0  0  0  0  0  0  0
    4.2533   -1.9062   24.5287 C   0  0  0  0  0  0  0  0  0  0  0  0
    4.3244   -0.6738   25.1866 C   0  0  0  0  0  0  0  0  0  0  0  0
    4.2481   -0.3059   26.5884 C   0  0  0  0  0  0  0  0  0  0  0  0
    3.6603   -1.2064   27.4558 C   0  0  0  0  0  0  0  0  0  0  0  0
    3.2384   -1.2311   28.8084 C   0  0  0  0  0  0  0  0  0  0  0  0
    2.4742   -2.3645   28.9780 C   0  0  0  0  0  0  0  0  0  0  0  0
    2.4096   -2.9896   27.7633 N   0  0  0  0  0  0  0  0  0  0  0  0
    3.2388   -2.3675   26.8605 C   0  0  0  0  0  0  0  0  0  0  0  0
    3.5862   -2.6694   25.4989 C   0  0  0  0  0  0  0  0  0  0  0  0
    6.0478   -2.4584   21.5637 H   0  0  0  0  0  0  0  0  0  0  0  0
    6.2352   -4.4011   19.8181 H   0  0  0  0  0  0  0  0  0  0  0  0
    5.3271   -3.1396   19.3893 H   0  0  0  0  0  0  0  0  0  0  0  0
    6.5267   -5.9415   18.7165 H   0  0  0  0  0  0  0  0  0  0  0  0
    4.0805   -7.1484   17.8920 H   0  0  0  0  0  0  0  0  0  0  0  0
    5.5380   -7.5734   18.1741 H   0  0  0  0  0  0  0  0  0  0  0  0
    5.5754   -6.1756   15.8946 H   0  0  0  0  0  0  0  0  0  0  0  0
    7.5982   -6.3394   16.4694 H   0  0  0  0  0  0  0  0  0  0  0  0
    8.9275   -1.5351   14.9941 H   0  0  0  0  0  0  0  0  0  0  0  0
   11.6266   -1.2712   15.0459 H   0  0  0  0  0  0  0  0  0  0  0  0
   12.4476   -3.6731   14.9304 H   0  0  0  0  0  0  0  0  0  0  0  0
    4.2284    0.2178   24.6121 H   0  0  0  0  0  0  0  0  0  0  0  0
    4.4286    0.7202   26.8886 H   0  0  0  0  0  0  0  0  0  0  0  0
    3.4140   -0.4694   29.5555 H   0  0  0  0  0  0  0  0  0  0  0  0
    1.9276   -2.7402   29.8318 H   0  0  0  0  0  0  0  0  0  0  0  0
    1.8298   -3.7833   27.5417 H   0  0  0  0  0  0  0  0  0  0  0  0
    3.1449   -3.5554   25.1165 H   0  0  0  0  0  0  0  0  0  0  0  0
  1  2  2  0
  2  3  1  0
  3  4  1  0
  4  5  1  0
  5  6  1  0
  6  7  1  0
  5  8  1  0
  8  9  1  0
  9 10  2  0
  9 11  1  0
 11 12  1  0
 12 13  2  0
 13 14  1  0
 14 15  1  0
  2 16  1  0
 16 17  2  0
 17 18  1  0
 18 19  2  0
 19 20  1  0
 20 21  2  0
 21 22  1  0
 22 23  1  0
 23 24  2  0
 15 11  2  0
 24 16  1  0
 23 19  1  0
  3 25  1  0
  4 26  1  0
  4 27  1  0
  5 28  1  0
  6 29  1  0
  6 30  1  0
  7 31  1  0
  8 32  1  0
 12 33  1  0
 13 34  1  0
 14 35  1  0
 17 36  1  0
 18 37  1  0
 20 38  1  0
 21 39  1  0
 22 40  1  0
 24 41  1  0
M  END
>  <Energy>  (721) 
863.66434108836597

>  <compound_id>  (721) 
30249

>  <target_id>  (721) 
1

>  <reference_id>  (721) 
122

>  <inspiration_ids>  (721) 
[40, 122]

>  <energy_score>  (721) 
759.7327326446125

>  <distance_score>  (721) 
5.924978693470839

>  <path>  (721) 
/opt/xchem-fragalysis-2/maxwin/BulkDock/SCRATCH/511020/C30249-P122/C30249-P122.minimised.mol

>  <scratch_subdir>  (721) 
/opt/xchem-fragalysis-2/maxwin/BulkDock/SCRATCH/511020/C30249-P122

>  <fragmenstein_runtime>  (721) 
11.191815376281738

>  <fragmenstein_outcome>  (721) 
too moved

>  <fragmenstein_mode>  (721) 
expansion

>  <fragmenstein_error>  (721) 


$$$$
C30250-P40
     RDKit          3D

 43 45  0  0  0  0  0  0  0  0999 V2000
    6.1851   -4.1732   19.6274 C   0  0  0  0  0  0  0  0  0  0  0  0
    6.3808   -2.7573   20.9680 C   0  0  0  0  0  0  0  0  0  0  0  0
    6.2144   -3.3035   22.8467 C   0  0  0  0  0  0  0  0  0  0  0  0
    6.0035   -4.6311   24.1665 C   0  0  0  0  0  0  0  0  0  0  0  0
    5.0994   -4.2470   25.2633 N   0  0  0  0  0  0  0  0  0  0  0  0
    4.6747   -4.9681   26.4284 C   0  0  0  0  0  0  0  0  0  0  0  0
    4.8838   -6.0960   26.7683 O   0  0  0  0  0  0  0  0  0  0  0  0
    3.7671   -4.1842   27.3414 C   0  0  0  0  0  0  0  0  0  0  0  0
    3.9207   -2.8025   27.5554 C   0  0  0  0  0  0  0  0  0  0  0  0
    3.0473   -2.0929   28.3822 C   0  0  0  0  0  0  0  0  0  0  0  0
    2.0023   -2.7314   29.0459 C   0  0  0  0  0  0  0  0  0  0  0  0
    1.8851   -4.1120   28.8785 C   0  0  0  0  0  0  0  0  0  0  0  0
    0.9847   -4.9820   29.4463 N   0  0  0  0  0  0  0  0  0  0  0  0
    1.2436   -6.2626   29.0405 C   0  0  0  0  0  0  0  0  0  0  0  0
    2.3080   -6.2128   28.1709 C   0  0  0  0  0  0  0  0  0  0  0  0
    2.7369   -4.8556   28.0571 C   0  0  0  0  0  0  0  0  0  0  0  0
    6.6019   -0.8886   20.3886 N   0  0  0  0  0  0  0  0  0  0  0  0
    7.2619   -0.2049   19.8384 C   0  0  0  0  0  0  0  0  0  0  0  0
    8.4816   -1.1040   19.5330 O   0  0  0  0  0  0  0  0  0  0  0  0
    7.2430    1.1506   19.2663 C   0  0  0  0  0  0  0  0  0  0  0  0
    8.1370    1.5750   18.2337 C   0  0  0  0  0  0  0  0  0  0  0  0
    7.8392    2.8881   17.9941 C   0  0  0  0  0  0  0  0  0  0  0  0
    6.8094    3.1791   18.8312 N   0  0  0  0  0  0  0  0  0  0  0  0
    6.3835    2.1398   19.5654 N   0  0  0  0  0  0  0  0  0  0  0  0
    5.1449   -4.3296   19.3594 H   0  0  0  0  0  0  0  0  0  0  0  0
    6.7608   -4.3815   18.7592 H   0  0  0  0  0  0  0  0  0  0  0  0
    6.7430   -5.0075   20.0187 H   0  0  0  0  0  0  0  0  0  0  0  0
    5.3203   -2.6872   20.8445 H   0  0  0  0  0  0  0  0  0  0  0  0
    5.9478   -2.4904   23.5166 H   0  0  0  0  0  0  0  0  0  0  0  0
    6.9625   -4.0335   22.6114 H   0  0  0  0  0  0  0  0  0  0  0  0
    6.9073   -4.9024   24.7157 H   0  0  0  0  0  0  0  0  0  0  0  0
    5.7286   -5.6247   23.7903 H   0  0  0  0  0  0  0  0  0  0  0  0
    4.8047   -3.2867   25.3455 H   0  0  0  0  0  0  0  0  0  0  0  0
    4.7442   -2.2577   27.0987 H   0  0  0  0  0  0  0  0  0  0  0  0
    3.1882   -1.0214   28.5141 H   0  0  0  0  0  0  0  0  0  0  0  0
    1.3260   -2.1710   29.6841 H   0  0  0  0  0  0  0  0  0  0  0  0
    0.2584   -4.6993   30.0905 H   0  0  0  0  0  0  0  0  0  0  0  0
    0.6488   -7.0874   29.4073 H   0  0  0  0  0  0  0  0  0  0  0  0
    2.7689   -7.0531   27.6662 H   0  0  0  0  0  0  0  0  0  0  0  0
    5.8192   -1.1288   20.9177 H   0  0  0  0  0  0  0  0  0  0  0  0
    8.9016    0.9972   17.7406 H   0  0  0  0  0  0  0  0  0  0  0  0
    8.2655    3.6242   17.3280 H   0  0  0  0  0  0  0  0  0  0  0  0
    6.3357    4.0685   18.9473 H   0  0  0  0  0  0  0  0  0  0  0  0
  1  2  1  0
  2  3  1  0
  3  4  1  0
  4  5  1  0
  5  6  1  0
  6  7  2  0
  6  8  1  0
  8  9  2  0
  9 10  1  0
 10 11  2  0
 11 12  1  0
 12 13  1  0
 13 14  1  0
 14 15  2  0
 15 16  1  0
  2 17  1  0
 17 18  1  0
 18 19  2  0
 18 20  1  0
 20 21  1  0
 21 22  2  0
 22 23  1  0
 23 24  1  0
 16  8  1  0
 24 20  2  0
 16 12  2  0
  1 25  1  0
  1 26  1  0
  1 27  1  0
  2 28  1  0
  3 29  1  0
  3 30  1  0
  4 31  1  0
  4 32  1  0
  5 33  1  0
  9 34  1  0
 10 35  1  0
 11 36  1  0
 13 37  1  0
 14 38  1  0
 15 39  1  0
 17 40  1  0
 21 41  1  0
 22 42  1  0
 23 43  1  0
M  END
>  <Energy>  (722) 
515.71227700925999

>  <compound_id>  (722) 
30250

>  <target_id>  (722) 
1

>  <reference_id>  (722) 
40

>  <inspiration_ids>  (722) 
[40, 122]

>  <energy_score>  (722) 
450.48840627919606

>  <distance_score>  (722) 
5.864931735955868

>  <path>  (722) 
/opt/xchem-fragalysis-2/maxwin/BulkDock/SCRATCH/511020/C30250-P40/C30250-P40.minimised.mol

>  <scratch_subdir>  (722) 
/opt/xchem-fragalysis-2/maxwin/BulkDock/SCRATCH/511020/C30250-P40

>  <fragmenstein_runtime>  (722) 
15.252713680267334

>  <fragmenstein_outcome>  (722) 
too moved

>  <fragmenstein_mode>  (722) 
expansion

>  <fragmenstein_error>  (722) 


$$$$
C30250-P122
     RDKit          3D

 43 45  0  0  0  0  0  0  0  0999 V2000
    7.8728   -4.6102   20.8375 C   0  0  0  0  0  0  0  0  0  0  0  0
    7.4377   -3.6159   22.1322 C   0  0  0  0  0  0  0  0  0  0  0  0
    5.6581   -2.6396   22.1626 C   0  0  0  0  0  0  0  0  0  0  0  0
    4.7246   -1.9981   23.6898 C   0  0  0  0  0  0  0  0  0  0  0  0
    4.2894   -2.1909   25.0916 N   0  0  0  0  0  0  0  0  0  0  0  0
    3.7840   -1.2497   26.0652 C   0  0  0  0  0  0  0  0  0  0  0  0
    3.6613   -0.0569   26.0124 O   0  0  0  0  0  0  0  0  0  0  0  0
    3.2684   -1.8718   27.3345 C   0  0  0  0  0  0  0  0  0  0  0  0
    1.8896   -1.8123   27.6139 C   0  0  0  0  0  0  0  0  0  0  0  0
    1.3211   -2.3772   28.7556 C   0  0  0  0  0  0  0  0  0  0  0  0
    2.1242   -2.9852   29.7105 C   0  0  0  0  0  0  0  0  0  0  0  0
    3.5045   -2.9598   29.4890 C   0  0  0  0  0  0  0  0  0  0  0  0
    4.5171   -3.4250   30.2957 N   0  0  0  0  0  0  0  0  0  0  0  0
    5.7300   -3.1887   29.7147 C   0  0  0  0  0  0  0  0  0  0  0  0
    5.5040   -2.5392   28.5231 C   0  0  0  0  0  0  0  0  0  0  0  0
    4.0982   -2.4106   28.3398 C   0  0  0  0  0  0  0  0  0  0  0  0
    8.0032   -2.7680   21.0163 N   0  0  0  0  0  0  0  0  0  0  0  0
    7.3807   -1.1023   20.2451 C   0  0  0  0  0  0  0  0  0  0  0  0
    6.4903   -0.5823   20.7582 O   0  0  0  0  0  0  0  0  0  0  0  0
    7.7385   -0.2672   18.8028 C   0  0  0  0  0  0  0  0  0  0  0  0
    6.9235    0.9450   18.5609 C   0  0  0  0  0  0  0  0  0  0  0  0
    7.3615    1.5499   17.4148 C   0  0  0  0  0  0  0  0  0  0  0  0
    8.3091    0.7271   16.9208 N   0  0  0  0  0  0  0  0  0  0  0  0
    8.5822   -0.3227   17.7074 N   0  0  0  0  0  0  0  0  0  0  0  0
    8.7344   -4.6563   20.1856 H   0  0  0  0  0  0  0  0  0  0  0  0
    7.1360   -4.8643   20.0101 H   0  0  0  0  0  0  0  0  0  0  0  0
    7.7348   -5.3327   21.6694 H   0  0  0  0  0  0  0  0  0  0  0  0
    7.5074   -4.0794   23.1302 H   0  0  0  0  0  0  0  0  0  0  0  0
    5.2828   -2.9593   21.1836 H   0  0  0  0  0  0  0  0  0  0  0  0
    5.6596   -1.5935   21.9568 H   0  0  0  0  0  0  0  0  0  0  0  0
    3.8076   -2.5131   23.4166 H   0  0  0  0  0  0  0  0  0  0  0  0
    5.6672   -2.2191   24.1670 H   0  0  0  0  0  0  0  0  0  0  0  0
    4.3241   -3.1113   25.5096 H   0  0  0  0  0  0  0  0  0  0  0  0
    1.2443   -1.2928   26.9191 H   0  0  0  0  0  0  0  0  0  0  0  0
    0.2452   -2.3207   28.9002 H   0  0  0  0  0  0  0  0  0  0  0  0
    1.6965   -3.4163   30.6098 H   0  0  0  0  0  0  0  0  0  0  0  0
    4.3735   -3.8429   31.2047 H   0  0  0  0  0  0  0  0  0  0  0  0
    6.6519   -3.4682   30.2057 H   0  0  0  0  0  0  0  0  0  0  0  0
    6.2675   -2.1938   27.8355 H   0  0  0  0  0  0  0  0  0  0  0  0
    9.0037   -3.1269   20.4393 H   0  0  0  0  0  0  0  0  0  0  0  0
    6.1729    1.3209   19.2422 H   0  0  0  0  0  0  0  0  0  0  0  0
    7.0756    2.4715   16.9300 H   0  0  0  0  0  0  0  0  0  0  0  0
    8.8339    0.8267   16.0566 H   0  0  0  0  0  0  0  0  0  0  0  0
  1  2  1  0
  2  3  1  0
  3  4  1  0
  4  5  1  0
  5  6  1  0
  6  7  2  0
  6  8  1  0
  8  9  2  0
  9 10  1  0
 10 11  2  0
 11 12  1  0
 12 13  1  0
 13 14  1  0
 14 15  2  0
 15 16  1  0
  2 17  1  0
 17 18  1  0
 18 19  2  0
 18 20  1  0
 20 21  1  0
 21 22  2  0
 22 23  1  0
 23 24  1  0
 16  8  1  0
 24 20  2  0
 16 12  2  0
  1 25  1  0
  1 26  1  0
  1 27  1  0
  2 28  1  0
  3 29  1  0
  3 30  1  0
  4 31  1  0
  4 32  1  0
  5 33  1  0
  9 34  1  0
 10 35  1  0
 11 36  1  0
 13 37  1  0
 14 38  1  0
 15 39  1  0
 17 40  1  0
 21 41  1  0
 22 42  1  0
 23 43  1  0
M  END
>  <Energy>  (723) 
549.33426277002354

>  <compound_id>  (723) 
30250

>  <target_id>  (723) 
1

>  <reference_id>  (723) 
122

>  <inspiration_ids>  (723) 
[40, 122]

>  <energy_score>  (723) 
484.11039203995784

>  <distance_score>  (723) 
5.774297007703472

>  <path>  (723) 
/opt/xchem-fragalysis-2/maxwin/BulkDock/SCRATCH/511020/C30250-P122/C30250-P122.minimised.mol

>  <scratch_subdir>  (723) 
/opt/xchem-fragalysis-2/maxwin/BulkDock/SCRATCH/511020/C30250-P122

>  <fragmenstein_runtime>  (723) 
15.727788925170898

>  <fragmenstein_outcome>  (723) 
too moved

>  <fragmenstein_mode>  (723) 
expansion

>  <fragmenstein_error>  (723) 


$$$$
C24464-P40
     RDKit          3D

 43 45  0  0  0  0  0  0  0  0999 V2000
    6.7459   -4.8590   19.5591 C   0  0  0  0  0  0  0  0  0  0  0  0
    7.8377   -4.2311   20.8900 C   0  0  0  0  0  0  0  0  0  0  0  0
    6.6886   -3.3832   22.3600 C   0  0  0  0  0  0  0  0  0  0  0  0
    5.8385   -2.8677   24.0368 C   0  0  0  0  0  0  0  0  0  0  0  0
    5.5953   -3.6896   25.2474 N   0  0  0  0  0  0  0  0  0  0  0  0
    6.0382   -3.5146   26.6114 C   0  0  0  0  0  0  0  0  0  0  0  0
    6.7809   -2.7043   27.0954 O   0  0  0  0  0  0  0  0  0  0  0  0
    5.4472   -4.3743   27.6882 C   0  0  0  0  0  0  0  0  0  0  0  0
    6.2839   -4.6190   28.8030 C   0  0  0  0  0  0  0  0  0  0  0  0
    5.7762   -4.7314   30.0935 C   0  0  0  0  0  0  0  0  0  0  0  0
    4.4125   -4.6110   30.3211 C   0  0  0  0  0  0  0  0  0  0  0  0
    3.5755   -4.5517   29.2112 C   0  0  0  0  0  0  0  0  0  0  0  0
    2.2083   -4.4563   29.1776 N   0  0  0  0  0  0  0  0  0  0  0  0
    1.7899   -4.3412   27.8865 C   0  0  0  0  0  0  0  0  0  0  0  0
    2.9055   -4.3361   27.0806 C   0  0  0  0  0  0  0  0  0  0  0  0
    4.0527   -4.4598   27.8972 C   0  0  0  0  0  0  0  0  0  0  0  0
    9.7771   -4.7775   20.9955 N   0  0  0  0  0  0  0  0  0  0  0  0
   10.6016   -5.3074   20.0864 C   0  0  0  0  0  0  0  0  0  0  0  0
   10.4202   -5.5751   18.9674 O   0  0  0  0  0  0  0  0  0  0  0  0
   11.9879   -5.4424   20.6977 C   0  0  0  0  0  0  0  0  0  0  0  0
   13.1482   -4.8473   20.1149 C   0  0  0  0  0  0  0  0  0  0  0  0
   14.2356   -4.9853   20.8726 N   0  0  0  0  0  0  0  0  0  0  0  0
   13.7984   -5.7101   21.9091 N   0  0  0  0  0  0  0  0  0  0  0  0
   12.4621   -6.0044   21.8625 C   0  0  0  0  0  0  0  0  0  0  0  0
    5.7579   -4.3907   19.5393 H   0  0  0  0  0  0  0  0  0  0  0  0
    6.8849   -5.9197   19.3142 H   0  0  0  0  0  0  0  0  0  0  0  0
    6.9027   -4.5893   18.5570 H   0  0  0  0  0  0  0  0  0  0  0  0
    8.4216   -3.7212   20.2267 H   0  0  0  0  0  0  0  0  0  0  0  0
    5.8736   -2.9166   21.7311 H   0  0  0  0  0  0  0  0  0  0  0  0
    6.6671   -4.3998   22.8583 H   0  0  0  0  0  0  0  0  0  0  0  0
    4.9745   -2.2002   23.8314 H   0  0  0  0  0  0  0  0  0  0  0  0
    6.3680   -2.1102   24.6077 H   0  0  0  0  0  0  0  0  0  0  0  0
    5.0349   -4.5279   25.1885 H   0  0  0  0  0  0  0  0  0  0  0  0
    7.3647   -4.5388   28.6769 H   0  0  0  0  0  0  0  0  0  0  0  0
    6.4645   -4.8052   30.9327 H   0  0  0  0  0  0  0  0  0  0  0  0
    4.0217   -4.5578   31.3318 H   0  0  0  0  0  0  0  0  0  0  0  0
    1.6159   -4.3985   29.9951 H   0  0  0  0  0  0  0  0  0  0  0  0
    0.7394   -4.1961   27.6860 H   0  0  0  0  0  0  0  0  0  0  0  0
    2.9406   -4.2011   26.0125 H   0  0  0  0  0  0  0  0  0  0  0  0
   10.3151   -4.5996   21.8576 H   0  0  0  0  0  0  0  0  0  0  0  0
   13.2129   -4.3105   19.1763 H   0  0  0  0  0  0  0  0  0  0  0  0
   14.4717   -5.9688   22.6225 H   0  0  0  0  0  0  0  0  0  0  0  0
   12.0072   -6.5905   22.6440 H   0  0  0  0  0  0  0  0  0  0  0  0
  1  2  1  0
  2  3  1  0
  3  4  1  0
  4  5  1  0
  5  6  1  0
  6  7  2  0
  6  8  1  0
  8  9  2  0
  9 10  1  0
 10 11  2  0
 11 12  1  0
 12 13  1  0
 13 14  1  0
 14 15  2  0
 15 16  1  0
  2 17  1  0
 17 18  1  0
 18 19  2  0
 18 20  1  0
 20 21  1  0
 21 22  2  0
 22 23  1  0
 23 24  1  0
 16  8  1  0
 24 20  2  0
 16 12  2  0
  1 25  1  0
  1 26  1  0
  1 27  1  0
  2 28  1  0
  3 29  1  0
  3 30  1  0
  4 31  1  0
  4 32  1  0
  5 33  1  0
  9 34  1  0
 10 35  1  0
 11 36  1  0
 13 37  1  0
 14 38  1  0
 15 39  1  0
 17 40  1  0
 21 41  1  0
 23 42  1  0
 24 43  1  0
M  END
>  <Energy>  (724) 
391.62336086753982

>  <compound_id>  (724) 
24464

>  <target_id>  (724) 
1

>  <reference_id>  (724) 
40

>  <inspiration_ids>  (724) 
[40, 122]

>  <energy_score>  (724) 
351.76710271069385

>  <distance_score>  (724) 
5.53822300807213

>  <path>  (724) 
/opt/xchem-fragalysis-2/maxwin/BulkDock/SCRATCH/511020/C24464-P40/C24464-P40.minimised.mol

>  <scratch_subdir>  (724) 
/opt/xchem-fragalysis-2/maxwin/BulkDock/SCRATCH/511020/C24464-P40

>  <fragmenstein_runtime>  (724) 
9.864320278167725

>  <fragmenstein_outcome>  (724) 
too moved

>  <fragmenstein_mode>  (724) 
expansion

>  <fragmenstein_error>  (724) 


$$$$
C24464-P122
     RDKit          3D

 43 45  0  0  0  0  0  0  0  0999 V2000
    5.7440   -2.5425   21.1290 C   0  0  0  0  0  0  0  0  0  0  0  0
    5.8306   -1.0177   21.7264 C   0  0  0  0  0  0  0  0  0  0  0  0
    5.0219   -1.8351   23.3766 C   0  0  0  0  0  0  0  0  0  0  0  0
    4.5460   -1.1835   24.9487 C   0  0  0  0  0  0  0  0  0  0  0  0
    3.7028   -1.8593   25.9336 N   0  0  0  0  0  0  0  0  0  0  0  0
    3.7437   -1.8486   27.3876 C   0  0  0  0  0  0  0  0  0  0  0  0
    4.5283   -1.3465   28.1449 O   0  0  0  0  0  0  0  0  0  0  0  0
    2.5973   -2.4960   28.1089 C   0  0  0  0  0  0  0  0  0  0  0  0
    1.2740   -2.1455   27.8251 C   0  0  0  0  0  0  0  0  0  0  0  0
    0.1943   -2.7138   28.5077 C   0  0  0  0  0  0  0  0  0  0  0  0
    0.3951   -3.6430   29.5246 C   0  0  0  0  0  0  0  0  0  0  0  0
    1.7151   -3.9145   29.8856 C   0  0  0  0  0  0  0  0  0  0  0  0
    2.1988   -4.7269   30.8883 N   0  0  0  0  0  0  0  0  0  0  0  0
    3.5597   -4.6115   30.9651 C   0  0  0  0  0  0  0  0  0  0  0  0
    3.9669   -3.7627   29.9649 C   0  0  0  0  0  0  0  0  0  0  0  0
    2.8135   -3.3333   29.2386 C   0  0  0  0  0  0  0  0  0  0  0  0
    6.9507   -0.8118   20.1281 N   0  0  0  0  0  0  0  0  0  0  0  0
    7.3538    0.4051   19.3523 C   0  0  0  0  0  0  0  0  0  0  0  0
    7.1712    1.5563   19.5803 O   0  0  0  0  0  0  0  0  0  0  0  0
    8.1205    0.2280   17.7358 C   0  0  0  0  0  0  0  0  0  0  0  0
    8.1257   -0.5123   16.4910 C   0  0  0  0  0  0  0  0  0  0  0  0
    9.1291   -0.1972   15.6666 N   0  0  0  0  0  0  0  0  0  0  0  0
    9.3859    1.0492   16.0318 N   0  0  0  0  0  0  0  0  0  0  0  0
    8.6430    1.3891   17.1122 C   0  0  0  0  0  0  0  0  0  0  0  0
    5.3261   -2.9332   20.2019 H   0  0  0  0  0  0  0  0  0  0  0  0
    6.6581   -3.0616   21.1305 H   0  0  0  0  0  0  0  0  0  0  0  0
    5.2233   -3.0280   21.8131 H   0  0  0  0  0  0  0  0  0  0  0  0
    5.1408   -0.1733   21.6397 H   0  0  0  0  0  0  0  0  0  0  0  0
    4.0557   -2.3105   23.2321 H   0  0  0  0  0  0  0  0  0  0  0  0
    5.8055   -2.4114   23.8317 H   0  0  0  0  0  0  0  0  0  0  0  0
    4.1123   -0.1857   24.8882 H   0  0  0  0  0  0  0  0  0  0  0  0
    5.4684   -1.1067   25.5294 H   0  0  0  0  0  0  0  0  0  0  0  0
    2.8432   -2.3137   25.6277 H   0  0  0  0  0  0  0  0  0  0  0  0
    1.0882   -1.3814   27.0800 H   0  0  0  0  0  0  0  0  0  0  0  0
   -0.8195   -2.4194   28.2432 H   0  0  0  0  0  0  0  0  0  0  0  0
   -0.4407   -4.0848   30.0543 H   0  0  0  0  0  0  0  0  0  0  0  0
    1.6285   -5.2852   31.5139 H   0  0  0  0  0  0  0  0  0  0  0  0
    4.1139   -5.1226   31.7398 H   0  0  0  0  0  0  0  0  0  0  0  0
    4.9875   -3.4569   29.7642 H   0  0  0  0  0  0  0  0  0  0  0  0
    7.1784   -1.5959   19.6258 H   0  0  0  0  0  0  0  0  0  0  0  0
    7.4811   -1.2884   16.1002 H   0  0  0  0  0  0  0  0  0  0  0  0
    9.9665    1.6324   15.4365 H   0  0  0  0  0  0  0  0  0  0  0  0
    8.4794    2.4265   17.3600 H   0  0  0  0  0  0  0  0  0  0  0  0
  1  2  1  0
  2  3  1  0
  3  4  1  0
  4  5  1  0
  5  6  1  0
  6  7  2  0
  6  8  1  0
  8  9  2  0
  9 10  1  0
 10 11  2  0
 11 12  1  0
 12 13  1  0
 13 14  1  0
 14 15  2  0
 15 16  1  0
  2 17  1  0
 17 18  1  0
 18 19  2  0
 18 20  1  0
 20 21  1  0
 21 22  2  0
 22 23  1  0
 23 24  1  0
 16  8  1  0
 24 20  2  0
 16 12  2  0
  1 25  1  0
  1 26  1  0
  1 27  1  0
  2 28  1  0
  3 29  1  0
  3 30  1  0
  4 31  1  0
  4 32  1  0
  5 33  1  0
  9 34  1  0
 10 35  1  0
 11 36  1  0
 13 37  1  0
 14 38  1  0
 15 39  1  0
 17 40  1  0
 21 41  1  0
 23 42  1  0
 24 43  1  0
M  END
>  <Energy>  (725) 
360.65850467366914

>  <compound_id>  (725) 
24464

>  <target_id>  (725) 
1

>  <reference_id>  (725) 
122

>  <inspiration_ids>  (725) 
[40, 122]

>  <energy_score>  (725) 
320.80224651681215

>  <distance_score>  (725) 
4.698560246104817

>  <path>  (725) 
/opt/xchem-fragalysis-2/maxwin/BulkDock/SCRATCH/511020/C24464-P122/C24464-P122.minimised.mol

>  <scratch_subdir>  (725) 
/opt/xchem-fragalysis-2/maxwin/BulkDock/SCRATCH/511020/C24464-P122

>  <fragmenstein_runtime>  (725) 
17.815114736557007

>  <fragmenstein_outcome>  (725) 
too moved

>  <fragmenstein_mode>  (725) 
expansion

>  <fragmenstein_error>  (725) 


$$$$
C30251-P40
     RDKit          3D

 46 48  0  0  0  0  0  0  0  0999 V2000
    5.1584   -6.0039   16.6097 C   0  0  0  0  0  0  0  0  0  0  0  0
    6.1759   -5.3022   17.4506 C   0  0  0  0  0  0  0  0  0  0  0  0
    5.9272   -4.3852   19.3148 C   0  0  0  0  0  0  0  0  0  0  0  0
    6.2274   -3.0047   20.8513 C   0  0  0  0  0  0  0  0  0  0  0  0
    6.0788   -3.1898   22.7306 N   0  0  0  0  0  0  0  0  0  0  0  0
    6.2191   -4.5289   23.7006 C   0  0  0  0  0  0  0  0  0  0  0  0
    6.5333   -5.6731   23.4193 O   0  0  0  0  0  0  0  0  0  0  0  0
    5.7645   -4.2867   25.2018 C   0  0  0  0  0  0  0  0  0  0  0  0
    5.2331   -3.0629   25.6856 C   0  0  0  0  0  0  0  0  0  0  0  0
    4.8304   -2.8835   27.0118 C   0  0  0  0  0  0  0  0  0  0  0  0
    4.9843   -3.9032   27.9392 C   0  0  0  0  0  0  0  0  0  0  0  0
    5.4806   -5.1265   27.4717 C   0  0  0  0  0  0  0  0  0  0  0  0
    5.7892   -5.3685   26.1237 C   0  0  0  0  0  0  0  0  0  0  0  0
    6.0708   -6.7665   26.0328 C   0  0  0  0  0  0  0  0  0  0  0  0
    6.1017   -7.2849   27.3044 C   0  0  0  0  0  0  0  0  0  0  0  0
    5.8616   -6.2548   28.1625 N   0  0  0  0  0  0  0  0  0  0  0  0
    6.1574   -6.2877   29.5729 C   0  0  0  0  0  0  0  0  0  0  0  0
    7.6005   -5.0958   16.1956 N   0  0  0  0  0  0  0  0  0  0  0  0
    8.4004   -3.5471   15.5118 C   0  0  0  0  0  0  0  0  0  0  0  0
    7.9979   -2.4101   15.7140 O   0  0  0  0  0  0  0  0  0  0  0  0
    9.8186   -3.4769   14.7379 C   0  0  0  0  0  0  0  0  0  0  0  0
   10.4488   -2.1412   14.6972 C   0  0  0  0  0  0  0  0  0  0  0  0
   11.8028   -2.3036   14.5856 C   0  0  0  0  0  0  0  0  0  0  0  0
   11.9820   -3.6395   14.6149 N   0  0  0  0  0  0  0  0  0  0  0  0
   10.8471   -4.3496   14.5966 N   0  0  0  0  0  0  0  0  0  0  0  0
    4.5254   -5.2848   16.0955 H   0  0  0  0  0  0  0  0  0  0  0  0
    4.6664   -6.7709   17.2038 H   0  0  0  0  0  0  0  0  0  0  0  0
    5.6362   -6.5638   15.7971 H   0  0  0  0  0  0  0  0  0  0  0  0
    6.6386   -6.1525   17.9593 H   0  0  0  0  0  0  0  0  0  0  0  0
    4.9015   -4.7633   19.3296 H   0  0  0  0  0  0  0  0  0  0  0  0
    5.3868   -3.4677   19.1649 H   0  0  0  0  0  0  0  0  0  0  0  0
    7.2799   -3.1956   21.1270 H   0  0  0  0  0  0  0  0  0  0  0  0
    5.7291   -2.0947   20.6794 H   0  0  0  0  0  0  0  0  0  0  0  0
    5.7175   -2.4154   23.2710 H   0  0  0  0  0  0  0  0  0  0  0  0
    5.1400   -2.1988   25.0401 H   0  0  0  0  0  0  0  0  0  0  0  0
    4.4497   -1.9154   27.3294 H   0  0  0  0  0  0  0  0  0  0  0  0
    4.7504   -3.7400   28.9852 H   0  0  0  0  0  0  0  0  0  0  0  0
    6.2883   -7.3229   25.1274 H   0  0  0  0  0  0  0  0  0  0  0  0
    6.3616   -8.2765   27.6502 H   0  0  0  0  0  0  0  0  0  0  0  0
    6.3155   -7.3220   29.8830 H   0  0  0  0  0  0  0  0  0  0  0  0
    7.0686   -5.7084   29.7452 H   0  0  0  0  0  0  0  0  0  0  0  0
    5.3216   -5.8427   30.1108 H   0  0  0  0  0  0  0  0  0  0  0  0
    8.0646   -5.9111   15.8133 H   0  0  0  0  0  0  0  0  0  0  0  0
    9.9300   -1.1991   14.8265 H   0  0  0  0  0  0  0  0  0  0  0  0
   12.6235   -1.6028   14.5540 H   0  0  0  0  0  0  0  0  0  0  0  0
   12.8596   -4.1498   14.6398 H   0  0  0  0  0  0  0  0  0  0  0  0
  1  2  1  0
  2  3  1  0
  3  4  1  0
  4  5  1  0
  5  6  1  0
  6  7  2  0
  6  8  1  0
  8  9  2  0
  9 10  1  0
 10 11  2  0
 11 12  1  0
 12 13  2  0
 13 14  1  0
 14 15  2  0
 15 16  1  0
 16 17  1  0
  2 18  1  0
 18 19  1  0
 19 20  2  0
 19 21  1  0
 21 22  1  0
 22 23  2  0
 23 24  1  0
 24 25  1  0
 13  8  1  0
 25 21  2  0
 16 12  1  0
  1 26  1  0
  1 27  1  0
  1 28  1  0
  2 29  1  0
  3 30  1  0
  3 31  1  0
  4 32  1  0
  4 33  1  0
  5 34  1  0
  9 35  1  0
 10 36  1  0
 11 37  1  0
 14 38  1  0
 15 39  1  0
 17 40  1  0
 17 41  1  0
 17 42  1  0
 18 43  1  0
 22 44  1  0
 23 45  1  0
 24 46  1  0
M  END
>  <Energy>  (726) 
554.20546281540533

>  <compound_id>  (726) 
30251

>  <target_id>  (726) 
1

>  <reference_id>  (726) 
40

>  <inspiration_ids>  (726) 
[40, 122]

>  <energy_score>  (726) 
484.84424781161755

>  <distance_score>  (726) 
5.455846834901517

>  <path>  (726) 
/opt/xchem-fragalysis-2/maxwin/BulkDock/SCRATCH/511020/C30251-P40/C30251-P40.minimised.mol

>  <scratch_subdir>  (726) 
/opt/xchem-fragalysis-2/maxwin/BulkDock/SCRATCH/511020/C30251-P40

>  <fragmenstein_runtime>  (726) 
12.952548742294312

>  <fragmenstein_outcome>  (726) 
too moved

>  <fragmenstein_mode>  (726) 
expansion

>  <fragmenstein_error>  (726) 


$$$$
C30251-P122
     RDKit          3D

 46 48  0  0  0  0  0  0  0  0999 V2000
    5.0543    0.1467   21.7816 C   0  0  0  0  0  0  0  0  0  0  0  0
    5.7540   -1.1726   21.6936 C   0  0  0  0  0  0  0  0  0  0  0  0
    5.0965   -1.8856   23.4171 C   0  0  0  0  0  0  0  0  0  0  0  0
    4.6041   -1.2289   24.9579 C   0  0  0  0  0  0  0  0  0  0  0  0
    3.7184   -1.8654   25.9252 N   0  0  0  0  0  0  0  0  0  0  0  0
    3.7480   -1.8748   27.3772 C   0  0  0  0  0  0  0  0  0  0  0  0
    4.5537   -1.4283   28.1468 O   0  0  0  0  0  0  0  0  0  0  0  0
    2.5453   -2.4348   28.0724 C   0  0  0  0  0  0  0  0  0  0  0  0
    1.2709   -1.9461   27.7674 C   0  0  0  0  0  0  0  0  0  0  0  0
    0.1284   -2.3854   28.4353 C   0  0  0  0  0  0  0  0  0  0  0  0
    0.2197   -3.3044   29.4727 C   0  0  0  0  0  0  0  0  0  0  0  0
    1.4999   -3.7063   29.8693 C   0  0  0  0  0  0  0  0  0  0  0  0
    2.6617   -3.2733   29.2128 C   0  0  0  0  0  0  0  0  0  0  0  0
    3.7586   -3.8062   29.9560 C   0  0  0  0  0  0  0  0  0  0  0  0
    3.2583   -4.5690   30.9827 C   0  0  0  0  0  0  0  0  0  0  0  0
    1.8942   -4.4984   30.9265 N   0  0  0  0  0  0  0  0  0  0  0  0
    1.0022   -5.0846   31.9037 C   0  0  0  0  0  0  0  0  0  0  0  0
    7.0764   -0.5950   20.3300 N   0  0  0  0  0  0  0  0  0  0  0  0
    6.9544   -0.4991   18.6582 C   0  0  0  0  0  0  0  0  0  0  0  0
    6.0256   -0.8644   17.9636 O   0  0  0  0  0  0  0  0  0  0  0  0
    8.1712    0.2031   17.6637 C   0  0  0  0  0  0  0  0  0  0  0  0
    8.4424    1.5736   17.2694 C   0  0  0  0  0  0  0  0  0  0  0  0
    9.3306    1.5406   16.2200 C   0  0  0  0  0  0  0  0  0  0  0  0
    9.4655    0.2309   15.9056 N   0  0  0  0  0  0  0  0  0  0  0  0
    8.8693   -0.5814   16.7882 N   0  0  0  0  0  0  0  0  0  0  0  0
    4.6366    0.4856   22.6553 H   0  0  0  0  0  0  0  0  0  0  0  0
    5.8088    0.8661   21.7974 H   0  0  0  0  0  0  0  0  0  0  0  0
    4.1530    0.5095   21.3897 H   0  0  0  0  0  0  0  0  0  0  0  0
    5.6075   -2.1797   21.2602 H   0  0  0  0  0  0  0  0  0  0  0  0
    4.1219   -2.3349   23.2529 H   0  0  0  0  0  0  0  0  0  0  0  0
    5.8688   -2.4878   23.8465 H   0  0  0  0  0  0  0  0  0  0  0  0
    4.1826   -0.2262   24.8869 H   0  0  0  0  0  0  0  0  0  0  0  0
    5.5180   -1.1605   25.5543 H   0  0  0  0  0  0  0  0  0  0  0  0
    2.8358   -2.2660   25.6071 H   0  0  0  0  0  0  0  0  0  0  0  0
    1.1785   -1.1719   27.0158 H   0  0  0  0  0  0  0  0  0  0  0  0
   -0.8453   -1.9934   28.1502 H   0  0  0  0  0  0  0  0  0  0  0  0
   -0.6700   -3.6331   29.9969 H   0  0  0  0  0  0  0  0  0  0  0  0
    4.8070   -3.6209   29.7537 H   0  0  0  0  0  0  0  0  0  0  0  0
    3.7590   -5.1134   31.7720 H   0  0  0  0  0  0  0  0  0  0  0  0
    0.2552   -4.3409   32.1935 H   0  0  0  0  0  0  0  0  0  0  0  0
    0.5210   -5.9519   31.4463 H   0  0  0  0  0  0  0  0  0  0  0  0
    1.5739   -5.3706   32.7892 H   0  0  0  0  0  0  0  0  0  0  0  0
    7.9905   -0.2910   20.6110 H   0  0  0  0  0  0  0  0  0  0  0  0
    7.9766    2.4650   17.6651 H   0  0  0  0  0  0  0  0  0  0  0  0
    9.7751    2.3231   15.6224 H   0  0  0  0  0  0  0  0  0  0  0  0
    9.9376   -0.1860   15.1041 H   0  0  0  0  0  0  0  0  0  0  0  0
  1  2  1  0
  2  3  1  0
  3  4  1  0
  4  5  1  0
  5  6  1  0
  6  7  2  0
  6  8  1  0
  8  9  2  0
  9 10  1  0
 10 11  2  0
 11 12  1  0
 12 13  2  0
 13 14  1  0
 14 15  2  0
 15 16  1  0
 16 17  1  0
  2 18  1  0
 18 19  1  0
 19 20  2  0
 19 21  1  0
 21 22  1  0
 22 23  2  0
 23 24  1  0
 24 25  1  0
 13  8  1  0
 25 21  2  0
 16 12  1  0
  1 26  1  0
  1 27  1  0
  1 28  1  0
  2 29  1  0
  3 30  1  0
  3 31  1  0
  4 32  1  0
  4 33  1  0
  5 34  1  0
  9 35  1  0
 10 36  1  0
 11 37  1  0
 14 38  1  0
 15 39  1  0
 17 40  1  0
 17 41  1  0
 17 42  1  0
 18 43  1  0
 22 44  1  0
 23 45  1  0
 24 46  1  0
M  END
>  <Energy>  (727) 
377.10847974078814

>  <compound_id>  (727) 
30251

>  <target_id>  (727) 
1

>  <reference_id>  (727) 
122

>  <inspiration_ids>  (727) 
[40, 122]

>  <energy_score>  (727) 
307.7472647369952

>  <distance_score>  (727) 
4.871975159647262

>  <path>  (727) 
/opt/xchem-fragalysis-2/maxwin/BulkDock/SCRATCH/511020/C30251-P122/C30251-P122.minimised.mol

>  <scratch_subdir>  (727) 
/opt/xchem-fragalysis-2/maxwin/BulkDock/SCRATCH/511020/C30251-P122

>  <fragmenstein_runtime>  (727) 
14.25900149345398

>  <fragmenstein_outcome>  (727) 
too moved

>  <fragmenstein_mode>  (727) 
expansion

>  <fragmenstein_error>  (727) 


$$$$
C24465-P40
     RDKit          3D

 46 48  0  0  0  0  0  0  0  0999 V2000
    6.6150   -6.4074   22.4021 C   0  0  0  0  0  0  0  0  0  0  0  0
    7.4207   -4.8024   21.8217 C   0  0  0  0  0  0  0  0  0  0  0  0
    6.6299   -4.7098   23.6351 C   0  0  0  0  0  0  0  0  0  0  0  0
    7.0090   -5.2213   25.1672 C   0  0  0  0  0  0  0  0  0  0  0  0
    5.9418   -4.6426   26.1461 N   0  0  0  0  0  0  0  0  0  0  0  0
    5.0930   -4.9193   26.7720 C   0  0  0  0  0  0  0  0  0  0  0  0
    5.0804   -6.5216   26.6511 O   0  0  0  0  0  0  0  0  0  0  0  0
    4.1126   -4.2368   27.6033 C   0  0  0  0  0  0  0  0  0  0  0  0
    4.2464   -2.8553   27.8176 C   0  0  0  0  0  0  0  0  0  0  0  0
    3.3278   -2.1545   28.5949 C   0  0  0  0  0  0  0  0  0  0  0  0
    2.2499   -2.8061   29.1886 C   0  0  0  0  0  0  0  0  0  0  0  0
    2.1153   -4.1847   28.9737 C   0  0  0  0  0  0  0  0  0  0  0  0
    3.0138   -4.9156   28.1841 C   0  0  0  0  0  0  0  0  0  0  0  0
    2.5290   -6.2561   28.1684 C   0  0  0  0  0  0  0  0  0  0  0  0
    1.4008   -6.3208   28.9532 C   0  0  0  0  0  0  0  0  0  0  0  0
    1.1706   -5.0673   29.4477 N   0  0  0  0  0  0  0  0  0  0  0  0
    0.1054   -4.7141   30.3591 C   0  0  0  0  0  0  0  0  0  0  0  0
    9.1698   -4.5550   20.7618 N   0  0  0  0  0  0  0  0  0  0  0  0
   10.7728   -5.3838   20.9169 C   0  0  0  0  0  0  0  0  0  0  0  0
   11.0248   -6.3198   21.6556 O   0  0  0  0  0  0  0  0  0  0  0  0
   12.1254   -4.8916   20.1934 C   0  0  0  0  0  0  0  0  0  0  0  0
   12.6325   -4.3689   18.9421 C   0  0  0  0  0  0  0  0  0  0  0  0
   13.9067   -3.9717   18.9754 N   0  0  0  0  0  0  0  0  0  0  0  0
   14.3053   -4.3755   20.1830 N   0  0  0  0  0  0  0  0  0  0  0  0
   13.2992   -4.8791   20.9487 C   0  0  0  0  0  0  0  0  0  0  0  0
    7.0576   -6.8408   23.3099 H   0  0  0  0  0  0  0  0  0  0  0  0
    6.5935   -6.9914   21.5016 H   0  0  0  0  0  0  0  0  0  0  0  0
    5.6043   -6.5856   22.7965 H   0  0  0  0  0  0  0  0  0  0  0  0
    7.2194   -3.6754   21.6923 H   0  0  0  0  0  0  0  0  0  0  0  0
    5.6888   -5.2249   23.7699 H   0  0  0  0  0  0  0  0  0  0  0  0
    6.1518   -3.7128   23.6554 H   0  0  0  0  0  0  0  0  0  0  0  0
    8.0172   -4.9853   25.5589 H   0  0  0  0  0  0  0  0  0  0  0  0
    6.9146   -6.3111   25.2312 H   0  0  0  0  0  0  0  0  0  0  0  0
    6.6141   -4.0093   25.7594 H   0  0  0  0  0  0  0  0  0  0  0  0
    5.0783   -2.3148   27.3698 H   0  0  0  0  0  0  0  0  0  0  0  0
    3.4527   -1.0831   28.7389 H   0  0  0  0  0  0  0  0  0  0  0  0
    1.5394   -2.2492   29.7921 H   0  0  0  0  0  0  0  0  0  0  0  0
    2.9830   -7.0806   27.6323 H   0  0  0  0  0  0  0  0  0  0  0  0
    0.7567   -7.1510   29.2076 H   0  0  0  0  0  0  0  0  0  0  0  0
    0.5457   -4.2637   31.2524 H   0  0  0  0  0  0  0  0  0  0  0  0
   -0.4461   -5.6149   30.6398 H   0  0  0  0  0  0  0  0  0  0  0  0
   -0.5583   -4.0072   29.8551 H   0  0  0  0  0  0  0  0  0  0  0  0
    9.2125   -3.9001   20.0503 H   0  0  0  0  0  0  0  0  0  0  0  0
   12.1101   -4.2329   18.0041 H   0  0  0  0  0  0  0  0  0  0  0  0
   15.2815   -4.2578   20.4311 H   0  0  0  0  0  0  0  0  0  0  0  0
   13.4814   -5.1892   21.9679 H   0  0  0  0  0  0  0  0  0  0  0  0
  1  2  1  0
  2  3  1  0
  3  4  1  0
  4  5  1  0
  5  6  1  0
  6  7  2  0
  6  8  1  0
  8  9  2  0
  9 10  1  0
 10 11  2  0
 11 12  1  0
 12 13  2  0
 13 14  1  0
 14 15  2  0
 15 16  1  0
 16 17  1  0
  2 18  1  0
 18 19  1  0
 19 20  2  0
 19 21  1  0
 21 22  1  0
 22 23  2  0
 23 24  1  0
 24 25  1  0
 13  8  1  0
 25 21  2  0
 16 12  1  0
  1 26  1  0
  1 27  1  0
  1 28  1  0
  2 29  1  0
  3 30  1  0
  3 31  1  0
  4 32  1  0
  4 33  1  0
  5 34  1  0
  9 35  1  0
 10 36  1  0
 11 37  1  0
 14 38  1  0
 15 39  1  0
 17 40  1  0
 17 41  1  0
 17 42  1  0
 18 43  1  0
 22 44  1  0
 24 45  1  0
 25 46  1  0
M  END
>  <Energy>  (728) 
640.88218687052711

>  <compound_id>  (728) 
24465

>  <target_id>  (728) 
1

>  <reference_id>  (728) 
40

>  <inspiration_ids>  (728) 
[40, 122]

>  <energy_score>  (728) 
596.1240527963222

>  <distance_score>  (728) 
4.555464801052444

>  <path>  (728) 
/opt/xchem-fragalysis-2/maxwin/BulkDock/SCRATCH/511020/C24465-P40/C24465-P40.minimised.mol

>  <scratch_subdir>  (728) 
/opt/xchem-fragalysis-2/maxwin/BulkDock/SCRATCH/511020/C24465-P40

>  <fragmenstein_runtime>  (728) 
11.425506830215454

>  <fragmenstein_outcome>  (728) 
too moved

>  <fragmenstein_mode>  (728) 
expansion

>  <fragmenstein_error>  (728) 


$$$$
C24465-P122
     RDKit          3D

 46 48  0  0  0  0  0  0  0  0999 V2000
    8.3208   -8.3652   27.2907 C   0  0  0  0  0  0  0  0  0  0  0  0
    8.3348   -9.1779   25.9895 C   0  0  0  0  0  0  0  0  0  0  0  0
    6.9060   -9.3427   25.3425 C   0  0  0  0  0  0  0  0  0  0  0  0
    6.0100   -8.0890   24.8342 C   0  0  0  0  0  0  0  0  0  0  0  0
    4.5130   -7.8058   25.2522 N   0  0  0  0  0  0  0  0  0  0  0  0
    3.4386   -6.1119   25.3364 C   0  0  0  0  0  0  0  0  0  0  0  0
    4.0385   -5.1575   24.8907 O   0  0  0  0  0  0  0  0  0  0  0  0
    1.6684   -5.4673   26.2260 C   0  0  0  0  0  0  0  0  0  0  0  0
    0.2920   -6.1460   26.6027 C   0  0  0  0  0  0  0  0  0  0  0  0
   -0.5214   -5.8121   27.6900 C   0  0  0  0  0  0  0  0  0  0  0  0
   -0.2132   -4.7377   28.5130 C   0  0  0  0  0  0  0  0  0  0  0  0
    0.8512   -3.8910   28.2031 C   0  0  0  0  0  0  0  0  0  0  0  0
    1.7488   -4.1256   27.1500 C   0  0  0  0  0  0  0  0  0  0  0  0
    2.6314   -2.9668   27.1706 C   0  0  0  0  0  0  0  0  0  0  0  0
    2.2983   -2.1578   28.2237 C   0  0  0  0  0  0  0  0  0  0  0  0
    1.2295   -2.7237   28.8428 N   0  0  0  0  0  0  0  0  0  0  0  0
    0.5580   -2.1467   29.9869 C   0  0  0  0  0  0  0  0  0  0  0  0
    9.4783   -8.8849   25.1312 N   0  0  0  0  0  0  0  0  0  0  0  0
   10.5739   -7.9575   25.2975 C   0  0  0  0  0  0  0  0  0  0  0  0
   10.7787   -7.1391   26.1413 O   0  0  0  0  0  0  0  0  0  0  0  0
   11.5796   -8.0555   24.2180 C   0  0  0  0  0  0  0  0  0  0  0  0
   12.4963   -7.0355   23.8220 C   0  0  0  0  0  0  0  0  0  0  0  0
   13.2269   -7.3748   22.7549 N   0  0  0  0  0  0  0  0  0  0  0  0
   12.9018   -8.6547   22.5494 N   0  0  0  0  0  0  0  0  0  0  0  0
   11.8991   -9.0982   23.3692 C   0  0  0  0  0  0  0  0  0  0  0  0
    8.2737   -7.2900   27.1129 H   0  0  0  0  0  0  0  0  0  0  0  0
    9.2310   -8.5562   27.8706 H   0  0  0  0  0  0  0  0  0  0  0  0
    7.4714   -8.6437   27.9234 H   0  0  0  0  0  0  0  0  0  0  0  0
    8.5732  -10.2005   26.3198 H   0  0  0  0  0  0  0  0  0  0  0  0
    6.9693  -10.1353   24.5903 H   0  0  0  0  0  0  0  0  0  0  0  0
    6.3740   -9.7402   26.2161 H   0  0  0  0  0  0  0  0  0  0  0  0
    6.4435   -7.6486   25.6971 H   0  0  0  0  0  0  0  0  0  0  0  0
    6.3703   -7.3534   24.0981 H   0  0  0  0  0  0  0  0  0  0  0  0
    4.0548   -8.4478   25.6742 H   0  0  0  0  0  0  0  0  0  0  0  0
   -0.0507   -7.0221   26.0421 H   0  0  0  0  0  0  0  0  0  0  0  0
   -1.3858   -6.4259   27.9186 H   0  0  0  0  0  0  0  0  0  0  0  0
   -0.8285   -4.5115   29.3731 H   0  0  0  0  0  0  0  0  0  0  0  0
    3.4223   -2.7539   26.4563 H   0  0  0  0  0  0  0  0  0  0  0  0
    2.7275   -1.2194   28.5481 H   0  0  0  0  0  0  0  0  0  0  0  0
    0.5974   -2.8652   30.8096 H   0  0  0  0  0  0  0  0  0  0  0  0
   -0.4766   -1.9299   29.7083 H   0  0  0  0  0  0  0  0  0  0  0  0
    1.0616   -1.2224   30.2818 H   0  0  0  0  0  0  0  0  0  0  0  0
    9.6746   -9.4901   24.3466 H   0  0  0  0  0  0  0  0  0  0  0  0
   12.6072   -6.0438   24.2495 H   0  0  0  0  0  0  0  0  0  0  0  0
   13.4150   -9.1719   21.8412 H   0  0  0  0  0  0  0  0  0  0  0  0
   11.5543  -10.1198   23.3068 H   0  0  0  0  0  0  0  0  0  0  0  0
  1  2  1  0
  2  3  1  0
  3  4  1  0
  4  5  1  0
  5  6  1  0
  6  7  2  0
  6  8  1  0
  8  9  2  0
  9 10  1  0
 10 11  2  0
 11 12  1  0
 12 13  2  0
 13 14  1  0
 14 15  2  0
 15 16  1  0
 16 17  1  0
  2 18  1  0
 18 19  1  0
 19 20  2  0
 19 21  1  0
 21 22  1  0
 22 23  2  0
 23 24  1  0
 24 25  1  0
 13  8  1  0
 25 21  2  0
 16 12  1  0
  1 26  1  0
  1 27  1  0
  1 28  1  0
  2 29  1  0
  3 30  1  0
  3 31  1  0
  4 32  1  0
  4 33  1  0
  5 34  1  0
  9 35  1  0
 10 36  1  0
 11 37  1  0
 14 38  1  0
 15 39  1  0
 17 40  1  0
 17 41  1  0
 17 42  1  0
 18 43  1  0
 22 44  1  0
 24 45  1  0
 25 46  1  0
M  END
>  <Energy>  (729) 
363.00543593411123

>  <compound_id>  (729) 
24465

>  <target_id>  (729) 
1

>  <reference_id>  (729) 
122

>  <inspiration_ids>  (729) 
[40, 122]

>  <energy_score>  (729) 
318.24730185990757

>  <distance_score>  (729) 
6.761993006723215

>  <path>  (729) 
/opt/xchem-fragalysis-2/maxwin/BulkDock/SCRATCH/511020/C24465-P122/C24465-P122.minimised.mol

>  <scratch_subdir>  (729) 
/opt/xchem-fragalysis-2/maxwin/BulkDock/SCRATCH/511020/C24465-P122

>  <fragmenstein_runtime>  (729) 
13.145112037658691

>  <fragmenstein_outcome>  (729) 
too moved

>  <fragmenstein_mode>  (729) 
expansion

>  <fragmenstein_error>  (729) 


$$$$
C30252-P40
     RDKit          3D

 50 52  0  0  0  0  0  0  0  0999 V2000
    6.7165   -7.1214   25.3895 C   0  0  0  0  0  0  0  0  0  0  0  0
    5.7111   -6.6197   24.2876 C   0  0  0  0  0  0  0  0  0  0  0  0
    4.5550   -7.6417   24.3848 C   0  0  0  0  0  0  0  0  0  0  0  0
    6.5948   -6.3327   22.7876 C   0  0  0  0  0  0  0  0  0  0  0  0
    7.4162   -4.8132   21.7628 C   0  0  0  0  0  0  0  0  0  0  0  0
    6.4188   -4.2717   23.3547 C   0  0  0  0  0  0  0  0  0  0  0  0
    5.6108   -3.3222   24.6051 N   0  0  0  0  0  0  0  0  0  0  0  0
    5.8555   -3.7457   26.0253 C   0  0  0  0  0  0  0  0  0  0  0  0
    4.6432   -4.1458   26.8713 C   0  0  0  0  0  0  0  0  0  0  0  0
    4.6743   -5.3324   27.6189 C   0  0  0  0  0  0  0  0  0  0  0  0
    3.6093   -5.7532   28.4277 C   0  0  0  0  0  0  0  0  0  0  0  0
    2.4800   -4.9348   28.5418 C   0  0  0  0  0  0  0  0  0  0  0  0
    1.2506   -5.0354   29.2458 C   0  0  0  0  0  0  0  0  0  0  0  0
    0.5330   -3.8916   28.9863 C   0  0  0  0  0  0  0  0  0  0  0  0
    1.3005   -3.0822   28.1884 N   0  0  0  0  0  0  0  0  0  0  0  0
    2.4824   -3.7137   27.8698 C   0  0  0  0  0  0  0  0  0  0  0  0
    3.5460   -3.2945   27.0467 C   0  0  0  0  0  0  0  0  0  0  0  0
    9.1807   -4.5427   20.7571 N   0  0  0  0  0  0  0  0  0  0  0  0
   10.7739   -5.3733   20.9287 C   0  0  0  0  0  0  0  0  0  0  0  0
   11.0158   -6.3293   21.6496 O   0  0  0  0  0  0  0  0  0  0  0  0
   12.1601   -4.8496   20.2323 C   0  0  0  0  0  0  0  0  0  0  0  0
   13.3452   -4.7207   21.0387 C   0  0  0  0  0  0  0  0  0  0  0  0
   14.3732   -4.4004   20.1877 C   0  0  0  0  0  0  0  0  0  0  0  0
   13.8210   -4.3931   18.9493 N   0  0  0  0  0  0  0  0  0  0  0  0
   12.4940   -4.5283   18.9550 N   0  0  0  0  0  0  0  0  0  0  0  0
    6.2013   -7.3835   26.3156 H   0  0  0  0  0  0  0  0  0  0  0  0
    7.4861   -6.3835   25.6241 H   0  0  0  0  0  0  0  0  0  0  0  0
    7.2293   -8.0362   25.0700 H   0  0  0  0  0  0  0  0  0  0  0  0
    5.2345   -5.7183   24.6371 H   0  0  0  0  0  0  0  0  0  0  0  0
    4.8297   -8.5566   24.9243 H   0  0  0  0  0  0  0  0  0  0  0  0
    4.1573   -7.9543   23.4331 H   0  0  0  0  0  0  0  0  0  0  0  0
    3.7277   -7.2121   24.9640 H   0  0  0  0  0  0  0  0  0  0  0  0
    7.3585   -6.7537   23.3827 H   0  0  0  0  0  0  0  0  0  0  0  0
    6.2420   -7.0105   22.0604 H   0  0  0  0  0  0  0  0  0  0  0  0
    7.0648   -4.8266   20.6098 H   0  0  0  0  0  0  0  0  0  0  0  0
    6.3816   -3.3034   22.8590 H   0  0  0  0  0  0  0  0  0  0  0  0
    6.9520   -4.8061   24.1235 H   0  0  0  0  0  0  0  0  0  0  0  0
    6.1984   -2.4890   24.5591 H   0  0  0  0  0  0  0  0  0  0  0  0
    6.6394   -4.4983   26.1093 H   0  0  0  0  0  0  0  0  0  0  0  0
    6.2787   -2.8724   26.5437 H   0  0  0  0  0  0  0  0  0  0  0  0
    5.5679   -5.9469   27.6026 H   0  0  0  0  0  0  0  0  0  0  0  0
    3.6898   -6.6865   28.9676 H   0  0  0  0  0  0  0  0  0  0  0  0
    0.9264   -5.8506   29.8769 H   0  0  0  0  0  0  0  0  0  0  0  0
   -0.4486   -3.5661   29.3052 H   0  0  0  0  0  0  0  0  0  0  0  0
    1.0190   -2.1772   27.8308 H   0  0  0  0  0  0  0  0  0  0  0  0
    3.5370   -2.3208   26.5669 H   0  0  0  0  0  0  0  0  0  0  0  0
    9.2396   -3.8718   20.0638 H   0  0  0  0  0  0  0  0  0  0  0  0
   13.4137   -4.8919   22.1039 H   0  0  0  0  0  0  0  0  0  0  0  0
   15.4310   -4.2526   20.3446 H   0  0  0  0  0  0  0  0  0  0  0  0
   14.2856   -4.3220   18.0505 H   0  0  0  0  0  0  0  0  0  0  0  0
  1  2  1  0
  2  3  1  0
  2  4  1  0
  4  5  1  0
  5  6  1  0
  6  7  1  0
  7  8  1  0
  8  9  1  0
  9 10  2  0
 10 11  1  0
 11 12  2  0
 12 13  1  0
 13 14  2  0
 14 15  1  0
 15 16  1  0
 16 17  2  0
  5 18  1  0
 18 19  1  0
 19 20  2  0
 19 21  1  0
 21 22  1  0
 22 23  2  0
 23 24  1  0
 24 25  1  0
 17  9  1  0
 25 21  2  0
 16 12  1  0
  1 26  1  0
  1 27  1  0
  1 28  1  0
  2 29  1  0
  3 30  1  0
  3 31  1  0
  3 32  1  0
  4 33  1  0
  4 34  1  0
  5 35  1  0
  6 36  1  0
  6 37  1  0
  7 38  1  0
  8 39  1  0
  8 40  1  0
 10 41  1  0
 11 42  1  0
 13 43  1  0
 14 44  1  0
 15 45  1  0
 17 46  1  0
 18 47  1  0
 22 48  1  0
 23 49  1  0
 24 50  1  0
M  END
>  <Energy>  (730) 
613.98537650466562

>  <compound_id>  (730) 
30252

>  <target_id>  (730) 
1

>  <reference_id>  (730) 
40

>  <inspiration_ids>  (730) 
[40, 122]

>  <energy_score>  (730) 
497.9403064954878

>  <distance_score>  (730) 
4.887759950774302

>  <path>  (730) 
/opt/xchem-fragalysis-2/maxwin/BulkDock/SCRATCH/511020/C30252-P40/C30252-P40.minimised.mol

>  <scratch_subdir>  (730) 
/opt/xchem-fragalysis-2/maxwin/BulkDock/SCRATCH/511020/C30252-P40

>  <fragmenstein_runtime>  (730) 
13.71480917930603

>  <fragmenstein_outcome>  (730) 
too moved

>  <fragmenstein_mode>  (730) 
expansion

>  <fragmenstein_error>  (730) 


$$$$
C30252-P122
     RDKit          3D

 50 52  0  0  0  0  0  0  0  0999 V2000
    5.2343   -5.9627   17.8540 C   0  0  0  0  0  0  0  0  0  0  0  0
    4.9016   -5.0842   19.1368 C   0  0  0  0  0  0  0  0  0  0  0  0
    3.1331   -5.4970   19.8177 C   0  0  0  0  0  0  0  0  0  0  0  0
    6.7534   -5.0082   19.6997 C   0  0  0  0  0  0  0  0  0  0  0  0
    7.8431   -3.9379   21.0133 C   0  0  0  0  0  0  0  0  0  0  0  0
    6.0455   -2.8838   21.2932 C   0  0  0  0  0  0  0  0  0  0  0  0
    5.3395   -1.7766   22.5905 N   0  0  0  0  0  0  0  0  0  0  0  0
    4.5874   -2.0771   23.9794 C   0  0  0  0  0  0  0  0  0  0  0  0
    4.1007   -1.4363   25.3448 C   0  0  0  0  0  0  0  0  0  0  0  0
    4.4233   -0.3029   26.0759 C   0  0  0  0  0  0  0  0  0  0  0  0
    3.9579   -0.0417   27.4033 C   0  0  0  0  0  0  0  0  0  0  0  0
    3.1232   -0.9572   28.0609 C   0  0  0  0  0  0  0  0  0  0  0  0
    2.4891   -1.0541   29.3286 C   0  0  0  0  0  0  0  0  0  0  0  0
    1.7649   -2.2276   29.3514 C   0  0  0  0  0  0  0  0  0  0  0  0
    1.9377   -2.8377   28.1398 N   0  0  0  0  0  0  0  0  0  0  0  0
    2.7918   -2.0987   27.3631 C   0  0  0  0  0  0  0  0  0  0  0  0
    3.2973   -2.3257   26.0786 C   0  0  0  0  0  0  0  0  0  0  0  0
    8.9182   -2.7466   20.1088 N   0  0  0  0  0  0  0  0  0  0  0  0
    8.3920   -1.0616   19.1012 C   0  0  0  0  0  0  0  0  0  0  0  0
    7.2845   -0.8334   19.2384 O   0  0  0  0  0  0  0  0  0  0  0  0
    9.0892    0.1926   17.7853 C   0  0  0  0  0  0  0  0  0  0  0  0
   10.0946    0.0058   16.5941 C   0  0  0  0  0  0  0  0  0  0  0  0
    9.3804   -0.6001   15.6005 C   0  0  0  0  0  0  0  0  0  0  0  0
    8.1106   -0.4755   16.0296 N   0  0  0  0  0  0  0  0  0  0  0  0
    8.0044    0.4840   16.9923 N   0  0  0  0  0  0  0  0  0  0  0  0
    4.8100   -5.5448   16.9540 H   0  0  0  0  0  0  0  0  0  0  0  0
    4.8656   -6.9646   18.0151 H   0  0  0  0  0  0  0  0  0  0  0  0
    6.2827   -6.1469   17.6341 H   0  0  0  0  0  0  0  0  0  0  0  0
    5.0301   -4.1041   19.5493 H   0  0  0  0  0  0  0  0  0  0  0  0
    2.6933   -6.4486   19.4987 H   0  0  0  0  0  0  0  0  0  0  0  0
    2.4847   -4.8495   19.2566 H   0  0  0  0  0  0  0  0  0  0  0  0
    2.5587   -5.4274   20.7513 H   0  0  0  0  0  0  0  0  0  0  0  0
    7.0814   -6.0300   19.5427 H   0  0  0  0  0  0  0  0  0  0  0  0
    6.9557   -4.6519   18.7705 H   0  0  0  0  0  0  0  0  0  0  0  0
    7.8441   -4.2790   22.0551 H   0  0  0  0  0  0  0  0  0  0  0  0
    6.4186   -1.9724   20.8742 H   0  0  0  0  0  0  0  0  0  0  0  0
    6.2537   -3.2830   22.2756 H   0  0  0  0  0  0  0  0  0  0  0  0
    4.8932   -0.9801   22.1282 H   0  0  0  0  0  0  0  0  0  0  0  0
    3.7060   -2.6400   23.6752 H   0  0  0  0  0  0  0  0  0  0  0  0
    5.4194   -2.5672   24.4493 H   0  0  0  0  0  0  0  0  0  0  0  0
    5.0798    0.4464   25.6863 H   0  0  0  0  0  0  0  0  0  0  0  0
    4.2692    0.8708   27.9024 H   0  0  0  0  0  0  0  0  0  0  0  0
    2.5481   -0.3338   30.1330 H   0  0  0  0  0  0  0  0  0  0  0  0
    1.1354   -2.6651   30.1137 H   0  0  0  0  0  0  0  0  0  0  0  0
    1.4891   -3.6881   27.8366 H   0  0  0  0  0  0  0  0  0  0  0  0
    3.0382   -3.2334   25.5690 H   0  0  0  0  0  0  0  0  0  0  0  0
    9.9235   -2.8603   20.0540 H   0  0  0  0  0  0  0  0  0  0  0  0
   11.1776   -0.0521   16.5974 H   0  0  0  0  0  0  0  0  0  0  0  0
    9.6668   -1.1194   14.7052 H   0  0  0  0  0  0  0  0  0  0  0  0
    7.2642   -0.8922   15.6385 H   0  0  0  0  0  0  0  0  0  0  0  0
  1  2  1  0
  2  3  1  0
  2  4  1  0
  4  5  1  0
  5  6  1  0
  6  7  1  0
  7  8  1  0
  8  9  1  0
  9 10  2  0
 10 11  1  0
 11 12  2  0
 12 13  1  0
 13 14  2  0
 14 15  1  0
 15 16  1  0
 16 17  2  0
  5 18  1  0
 18 19  1  0
 19 20  2  0
 19 21  1  0
 21 22  1  0
 22 23  2  0
 23 24  1  0
 24 25  1  0
 17  9  1  0
 25 21  2  0
 16 12  1  0
  1 26  1  0
  1 27  1  0
  1 28  1  0
  2 29  1  0
  3 30  1  0
  3 31  1  0
  3 32  1  0
  4 33  1  0
  4 34  1  0
  5 35  1  0
  6 36  1  0
  6 37  1  0
  7 38  1  0
  8 39  1  0
  8 40  1  0
 10 41  1  0
 11 42  1  0
 13 43  1  0
 14 44  1  0
 15 45  1  0
 17 46  1  0
 18 47  1  0
 22 48  1  0
 23 49  1  0
 24 50  1  0
M  END
>  <Energy>  (731) 
866.79019575853931

>  <compound_id>  (731) 
30252

>  <target_id>  (731) 
1

>  <reference_id>  (731) 
122

>  <inspiration_ids>  (731) 
[40, 122]

>  <energy_score>  (731) 
750.7451257493697

>  <distance_score>  (731) 
6.191997331832628

>  <path>  (731) 
/opt/xchem-fragalysis-2/maxwin/BulkDock/SCRATCH/511020/C30252-P122/C30252-P122.minimised.mol

>  <scratch_subdir>  (731) 
/opt/xchem-fragalysis-2/maxwin/BulkDock/SCRATCH/511020/C30252-P122

>  <fragmenstein_runtime>  (731) 
17.231746673583984

>  <fragmenstein_outcome>  (731) 
too moved

>  <fragmenstein_mode>  (731) 
expansion

>  <fragmenstein_error>  (731) 


$$$$
C24466-P40
     RDKit          3D

 50 52  0  0  0  0  0  0  0  0999 V2000
    4.7392    0.7314   21.1812 C   0  0  0  0  0  0  0  0  0  0  0  0
    6.4824    0.4044   20.0859 C   0  0  0  0  0  0  0  0  0  0  0  0
    7.3982    0.9433   18.8625 C   0  0  0  0  0  0  0  0  0  0  0  0
    7.0413   -1.0573   20.4658 C   0  0  0  0  0  0  0  0  0  0  0  0
    7.4047   -2.8162   21.3528 C   0  0  0  0  0  0  0  0  0  0  0  0
    6.2928   -3.2326   22.8544 C   0  0  0  0  0  0  0  0  0  0  0  0
    5.6651   -2.7324   24.3747 N   0  0  0  0  0  0  0  0  0  0  0  0
    5.6239   -3.9381   25.3210 C   0  0  0  0  0  0  0  0  0  0  0  0
    4.3904   -4.2193   26.1724 C   0  0  0  0  0  0  0  0  0  0  0  0
    4.0564   -5.5689   26.4102 C   0  0  0  0  0  0  0  0  0  0  0  0
    3.0634   -5.9506   27.3200 C   0  0  0  0  0  0  0  0  0  0  0  0
    2.3557   -4.9538   28.0024 C   0  0  0  0  0  0  0  0  0  0  0  0
    1.3119   -4.9695   28.9647 C   0  0  0  0  0  0  0  0  0  0  0  0
    0.9849   -3.6629   29.2388 C   0  0  0  0  0  0  0  0  0  0  0  0
    1.8171   -2.8550   28.5077 N   0  0  0  0  0  0  0  0  0  0  0  0
    2.6792   -3.6191   27.7545 C   0  0  0  0  0  0  0  0  0  0  0  0
    3.7037   -3.2232   26.8740 C   0  0  0  0  0  0  0  0  0  0  0  0
    9.0450   -3.4568   20.6490 N   0  0  0  0  0  0  0  0  0  0  0  0
   10.8237   -3.5491   21.4559 C   0  0  0  0  0  0  0  0  0  0  0  0
   11.0934   -3.0848   22.5504 O   0  0  0  0  0  0  0  0  0  0  0  0
   12.0602   -4.3185   20.8902 C   0  0  0  0  0  0  0  0  0  0  0  0
   12.9461   -4.0207   19.8032 C   0  0  0  0  0  0  0  0  0  0  0  0
   14.0833   -4.7114   19.8380 N   0  0  0  0  0  0  0  0  0  0  0  0
   13.9586   -5.4521   20.9416 N   0  0  0  0  0  0  0  0  0  0  0  0
   12.7836   -5.2559   21.6082 C   0  0  0  0  0  0  0  0  0  0  0  0
    3.7554    1.1563   21.0599 H   0  0  0  0  0  0  0  0  0  0  0  0
    4.8755    1.2397   22.1796 H   0  0  0  0  0  0  0  0  0  0  0  0
    4.6933   -0.2805   21.6588 H   0  0  0  0  0  0  0  0  0  0  0  0
    7.0304    1.3111   20.4628 H   0  0  0  0  0  0  0  0  0  0  0  0
    7.3127    2.0177   18.6466 H   0  0  0  0  0  0  0  0  0  0  0  0
    8.4567    0.8692   19.1483 H   0  0  0  0  0  0  0  0  0  0  0  0
    7.3327    0.3236   17.9745 H   0  0  0  0  0  0  0  0  0  0  0  0
    7.7477   -0.9142   19.6495 H   0  0  0  0  0  0  0  0  0  0  0  0
    6.1132   -1.6274   20.4999 H   0  0  0  0  0  0  0  0  0  0  0  0
    7.1290   -3.6650   20.7590 H   0  0  0  0  0  0  0  0  0  0  0  0
    6.5023   -4.2987   23.0378 H   0  0  0  0  0  0  0  0  0  0  0  0
    5.4832   -2.7941   22.2610 H   0  0  0  0  0  0  0  0  0  0  0  0
    6.4866   -2.2656   24.7698 H   0  0  0  0  0  0  0  0  0  0  0  0
    5.8752   -4.8609   24.7885 H   0  0  0  0  0  0  0  0  0  0  0  0
    6.4286   -3.8032   26.0591 H   0  0  0  0  0  0  0  0  0  0  0  0
    4.6088   -6.3553   25.8929 H   0  0  0  0  0  0  0  0  0  0  0  0
    2.8648   -7.0021   27.4850 H   0  0  0  0  0  0  0  0  0  0  0  0
    0.8352   -5.8373   29.3968 H   0  0  0  0  0  0  0  0  0  0  0  0
    0.2354   -3.2302   29.8880 H   0  0  0  0  0  0  0  0  0  0  0  0
    1.7936   -1.8436   28.4972 H   0  0  0  0  0  0  0  0  0  0  0  0
    3.9574   -2.1756   26.7338 H   0  0  0  0  0  0  0  0  0  0  0  0
    9.0372   -3.9791   19.7969 H   0  0  0  0  0  0  0  0  0  0  0  0
   12.8335   -3.2980   19.0082 H   0  0  0  0  0  0  0  0  0  0  0  0
   14.7311   -6.0600   21.1922 H   0  0  0  0  0  0  0  0  0  0  0  0
   12.6023   -5.7225   22.5645 H   0  0  0  0  0  0  0  0  0  0  0  0
  1  2  1  0
  2  3  1  0
  2  4  1  0
  4  5  1  0
  5  6  1  0
  6  7  1  0
  7  8  1  0
  8  9  1  0
  9 10  2  0
 10 11  1  0
 11 12  2  0
 12 13  1  0
 13 14  2  0
 14 15  1  0
 15 16  1  0
 16 17  2  0
  5 18  1  0
 18 19  1  0
 19 20  2  0
 19 21  1  0
 21 22  1  0
 22 23  2  0
 23 24  1  0
 24 25  1  0
 17  9  1  0
 25 21  2  0
 16 12  1  0
  1 26  1  0
  1 27  1  0
  1 28  1  0
  2 29  1  0
  3 30  1  0
  3 31  1  0
  3 32  1  0
  4 33  1  0
  4 34  1  0
  5 35  1  0
  6 36  1  0
  6 37  1  0
  7 38  1  0
  8 39  1  0
  8 40  1  0
 10 41  1  0
 11 42  1  0
 13 43  1  0
 14 44  1  0
 15 45  1  0
 17 46  1  0
 18 47  1  0
 22 48  1  0
 24 49  1  0
 25 50  1  0
M  END
>  <Energy>  (732) 
603.67822118590186

>  <compound_id>  (732) 
24466

>  <target_id>  (732) 
1

>  <reference_id>  (732) 
40

>  <inspiration_ids>  (732) 
[40, 122]

>  <energy_score>  (732) 
538.8218184568257

>  <distance_score>  (732) 
5.022946902204212

>  <path>  (732) 
/opt/xchem-fragalysis-2/maxwin/BulkDock/SCRATCH/511020/C24466-P40/C24466-P40.minimised.mol

>  <scratch_subdir>  (732) 
/opt/xchem-fragalysis-2/maxwin/BulkDock/SCRATCH/511020/C24466-P40

>  <fragmenstein_runtime>  (732) 
14.114605188369751

>  <fragmenstein_outcome>  (732) 
too moved

>  <fragmenstein_mode>  (732) 
expansion

>  <fragmenstein_error>  (732) 


$$$$
C24466-P122
     RDKit          3D

 50 52  0  0  0  0  0  0  0  0999 V2000
    2.1549    2.0681   21.4961 C   0  0  0  0  0  0  0  0  0  0  0  0
    2.8010    0.4399   21.2334 C   0  0  0  0  0  0  0  0  0  0  0  0
    1.5826   -0.6112   19.6636 C   0  0  0  0  0  0  0  0  0  0  0  0
    4.5840   -0.6329   21.9016 C   0  0  0  0  0  0  0  0  0  0  0  0
    5.3015   -2.4897   22.5147 C   0  0  0  0  0  0  0  0  0  0  0  0
    4.6463   -2.3527   24.3614 C   0  0  0  0  0  0  0  0  0  0  0  0
    3.6826   -1.4714   25.0442 N   0  0  0  0  0  0  0  0  0  0  0  0
    3.9789   -1.1086   26.4374 C   0  0  0  0  0  0  0  0  0  0  0  0
    3.4267   -1.9840   27.5609 C   0  0  0  0  0  0  0  0  0  0  0  0
    4.2625   -2.4327   28.5947 C   0  0  0  0  0  0  0  0  0  0  0  0
    3.7834   -3.2305   29.6539 C   0  0  0  0  0  0  0  0  0  0  0  0
    2.4362   -3.6304   29.6560 C   0  0  0  0  0  0  0  0  0  0  0  0
    1.6517   -4.4909   30.4684 C   0  0  0  0  0  0  0  0  0  0  0  0
    0.3724   -4.4891   29.9606 C   0  0  0  0  0  0  0  0  0  0  0  0
    0.3401   -3.6300   28.8957 N   0  0  0  0  0  0  0  0  0  0  0  0
    1.5995   -3.1272   28.6641 C   0  0  0  0  0  0  0  0  0  0  0  0
    2.0591   -2.2680   27.6572 C   0  0  0  0  0  0  0  0  0  0  0  0
    7.1088   -3.4779   22.6836 N   0  0  0  0  0  0  0  0  0  0  0  0
    8.6445   -3.3628   21.5679 C   0  0  0  0  0  0  0  0  0  0  0  0
    8.4028   -2.8332   20.7556 O   0  0  0  0  0  0  0  0  0  0  0  0
   10.8615   -3.6309   21.5192 C   0  0  0  0  0  0  0  0  0  0  0  0
   11.9444   -4.5534   20.8016 C   0  0  0  0  0  0  0  0  0  0  0  0
   13.1983   -4.5566   21.2464 N   0  0  0  0  0  0  0  0  0  0  0  0
   13.1033   -3.8402   22.3507 N   0  0  0  0  0  0  0  0  0  0  0  0
   11.8187   -3.5537   22.7146 C   0  0  0  0  0  0  0  0  0  0  0  0
    2.5563    2.4801   22.4298 H   0  0  0  0  0  0  0  0  0  0  0  0
    1.0844    2.2547   21.5885 H   0  0  0  0  0  0  0  0  0  0  0  0
    2.3466    2.7022   20.6227 H   0  0  0  0  0  0  0  0  0  0  0  0
    3.6382    1.0681   21.2126 H   0  0  0  0  0  0  0  0  0  0  0  0
    1.3950    0.1335   18.7892 H   0  0  0  0  0  0  0  0  0  0  0  0
    0.6065   -0.9472   19.7354 H   0  0  0  0  0  0  0  0  0  0  0  0
    2.1474   -1.2181   18.9347 H   0  0  0  0  0  0  0  0  0  0  0  0
    5.4033    0.0389   21.7084 H   0  0  0  0  0  0  0  0  0  0  0  0
    4.4544   -0.9004   22.9012 H   0  0  0  0  0  0  0  0  0  0  0  0
    5.8823   -1.7694   22.9713 H   0  0  0  0  0  0  0  0  0  0  0  0
    4.2612   -3.3181   24.6772 H   0  0  0  0  0  0  0  0  0  0  0  0
    5.5926   -2.1205   24.8503 H   0  0  0  0  0  0  0  0  0  0  0  0
    2.7452   -1.8692   24.9492 H   0  0  0  0  0  0  0  0  0  0  0  0
    5.0572   -0.9604   26.5726 H   0  0  0  0  0  0  0  0  0  0  0  0
    3.5441   -0.1132   26.5984 H   0  0  0  0  0  0  0  0  0  0  0  0
    5.3217   -2.1808   28.5703 H   0  0  0  0  0  0  0  0  0  0  0  0
    4.4647   -3.5738   30.4256 H   0  0  0  0  0  0  0  0  0  0  0  0
    1.9831   -5.0609   31.3279 H   0  0  0  0  0  0  0  0  0  0  0  0
   -0.5106   -5.0153   30.2883 H   0  0  0  0  0  0  0  0  0  0  0  0
   -0.4740   -3.4105   28.3361 H   0  0  0  0  0  0  0  0  0  0  0  0
    1.3693   -1.8414   26.9460 H   0  0  0  0  0  0  0  0  0  0  0  0
    7.3715   -3.9452   23.5529 H   0  0  0  0  0  0  0  0  0  0  0  0
   11.7762   -5.2589   20.0055 H   0  0  0  0  0  0  0  0  0  0  0  0
   13.9460   -3.6523   22.8814 H   0  0  0  0  0  0  0  0  0  0  0  0
   11.6727   -3.1238   23.6980 H   0  0  0  0  0  0  0  0  0  0  0  0
  1  2  1  0
  2  3  1  0
  2  4  1  0
  4  5  1  0
  5  6  1  0
  6  7  1  0
  7  8  1  0
  8  9  1  0
  9 10  2  0
 10 11  1  0
 11 12  2  0
 12 13  1  0
 13 14  2  0
 14 15  1  0
 15 16  1  0
 16 17  2  0
  5 18  1  0
 18 19  1  0
 19 20  2  0
 19 21  1  0
 21 22  1  0
 22 23  2  0
 23 24  1  0
 24 25  1  0
 17  9  1  0
 25 21  2  0
 16 12  1  0
  1 26  1  0
  1 27  1  0
  1 28  1  0
  2 29  1  0
  3 30  1  0
  3 31  1  0
  3 32  1  0
  4 33  1  0
  4 34  1  0
  5 35  1  0
  6 36  1  0
  6 37  1  0
  7 38  1  0
  8 39  1  0
  8 40  1  0
 10 41  1  0
 11 42  1  0
 13 43  1  0
 14 44  1  0
 15 45  1  0
 17 46  1  0
 18 47  1  0
 22 48  1  0
 24 49  1  0
 25 50  1  0
M  END
>  <Energy>  (733) 
1196.7129060469788

>  <compound_id>  (733) 
24466

>  <target_id>  (733) 
1

>  <reference_id>  (733) 
122

>  <inspiration_ids>  (733) 
[40, 122]

>  <energy_score>  (733) 
1131.856503317896

>  <distance_score>  (733) 
5.422878517131108

>  <path>  (733) 
/opt/xchem-fragalysis-2/maxwin/BulkDock/SCRATCH/511020/C24466-P122/C24466-P122.minimised.mol

>  <scratch_subdir>  (733) 
/opt/xchem-fragalysis-2/maxwin/BulkDock/SCRATCH/511020/C24466-P122

>  <fragmenstein_runtime>  (733) 
14.182088375091553

>  <fragmenstein_outcome>  (733) 
too moved

>  <fragmenstein_mode>  (733) 
expansion

>  <fragmenstein_error>  (733) 


$$$$
C24467-P40
     RDKit          3D

 41 43  0  0  0  0  0  0  0  0999 V2000
    8.4070   -4.0421   20.3120 C   0  0  0  0  0  0  0  0  0  0  0  0
    8.2973   -3.0041   21.3004 N   0  0  0  0  0  0  0  0  0  0  0  0
   10.4086   -2.9982   21.1320 C   0  0  0  0  0  0  0  0  0  0  0  0
   12.0037   -3.5509   21.5413 C   0  0  0  0  0  0  0  0  0  0  0  0
   12.6582   -3.6389   22.7946 C   0  0  0  0  0  0  0  0  0  0  0  0
   13.8993   -4.1231   22.6890 N   0  0  0  0  0  0  0  0  0  0  0  0
   14.0717   -4.3012   21.3715 N   0  0  0  0  0  0  0  0  0  0  0  0
   12.9817   -3.9618   20.6374 C   0  0  0  0  0  0  0  0  0  0  0  0
    7.0559   -1.7727   20.8004 C   0  0  0  0  0  0  0  0  0  0  0  0
    7.1751   -0.7218   20.1589 O   0  0  0  0  0  0  0  0  0  0  0  0
    5.5062   -2.5692   21.7115 C   0  0  0  0  0  0  0  0  0  0  0  0
    6.2896   -3.4236   22.7572 N   0  0  0  0  0  0  0  0  0  0  0  0
    4.7381   -1.6777   23.1928 C   0  0  0  0  0  0  0  0  0  0  0  0
    4.3968   -1.9270   24.8003 C   0  0  0  0  0  0  0  0  0  0  0  0
    4.1576   -0.7968   25.5894 C   0  0  0  0  0  0  0  0  0  0  0  0
    3.8082   -1.1690   26.8512 N   0  0  0  0  0  0  0  0  0  0  0  0
    3.8620   -2.5325   26.9823 C   0  0  0  0  0  0  0  0  0  0  0  0
    3.5305   -3.3147   28.1019 C   0  0  0  0  0  0  0  0  0  0  0  0
    3.7196   -4.6906   28.0234 C   0  0  0  0  0  0  0  0  0  0  0  0
    4.2589   -5.2487   26.8741 C   0  0  0  0  0  0  0  0  0  0  0  0
    4.5834   -4.4454   25.7638 C   0  0  0  0  0  0  0  0  0  0  0  0
    4.3368   -3.0510   25.7633 C   0  0  0  0  0  0  0  0  0  0  0  0
    8.5836   -3.7046   19.4645 H   0  0  0  0  0  0  0  0  0  0  0  0
    7.3939   -4.4545   20.1982 H   0  0  0  0  0  0  0  0  0  0  0  0
    9.2635   -4.7122   20.3436 H   0  0  0  0  0  0  0  0  0  0  0  0
   10.5272   -2.7857   22.2586 H   0  0  0  0  0  0  0  0  0  0  0  0
   10.6053   -4.2321   21.2394 H   0  0  0  0  0  0  0  0  0  0  0  0
   12.2765   -3.3741   23.7733 H   0  0  0  0  0  0  0  0  0  0  0  0
   14.9617   -4.6632   21.0445 H   0  0  0  0  0  0  0  0  0  0  0  0
   12.9813   -4.0605   19.5607 H   0  0  0  0  0  0  0  0  0  0  0  0
    5.0557   -3.0060   20.8164 H   0  0  0  0  0  0  0  0  0  0  0  0
    6.3234   -3.3021   23.7700 H   0  0  0  0  0  0  0  0  0  0  0  0
    7.0499   -4.0224   22.4545 H   0  0  0  0  0  0  0  0  0  0  0  0
    5.6070   -1.8369   23.7824 H   0  0  0  0  0  0  0  0  0  0  0  0
    4.8900   -0.6203   23.0140 H   0  0  0  0  0  0  0  0  0  0  0  0
    4.1533    0.2484   25.3074 H   0  0  0  0  0  0  0  0  0  0  0  0
    3.5272   -0.5330   27.5835 H   0  0  0  0  0  0  0  0  0  0  0  0
    3.1531   -2.8559   29.0105 H   0  0  0  0  0  0  0  0  0  0  0  0
    3.4908   -5.3170   28.8794 H   0  0  0  0  0  0  0  0  0  0  0  0
    4.4652   -6.3152   26.8243 H   0  0  0  0  0  0  0  0  0  0  0  0
    5.0531   -4.9277   24.9130 H   0  0  0  0  0  0  0  0  0  0  0  0
  1  2  1  0
  2  3  1  0
  3  4  1  0
  4  5  1  0
  5  6  2  0
  6  7  1  0
  7  8  1  0
  2  9  1  0
  9 10  2  0
  9 11  1  0
 11 12  1  0
 11 13  1  0
 13 14  1  0
 14 15  2  0
 15 16  1  0
 16 17  1  0
 17 18  2  0
 18 19  1  0
 19 20  2  0
 20 21  1  0
 21 22  2  0
  8  4  2  0
 22 14  1  0
 22 17  1  0
  1 23  1  0
  1 24  1  0
  1 25  1  0
  3 26  1  0
  3 27  1  0
  5 28  1  0
  7 29  1  0
  8 30  1  0
 11 31  1  0
 12 32  1  0
 12 33  1  0
 13 34  1  0
 13 35  1  0
 15 36  1  0
 16 37  1  0
 18 38  1  0
 19 39  1  0
 20 40  1  0
 21 41  1  0
M  END
>  <Energy>  (734) 
610.16037380569753

>  <compound_id>  (734) 
24467

>  <target_id>  (734) 
1

>  <reference_id>  (734) 
40

>  <inspiration_ids>  (734) 
[40, 122]

>  <energy_score>  (734) 
503.38516847884995

>  <distance_score>  (734) 
5.948512976085957

>  <path>  (734) 
/opt/xchem-fragalysis-2/maxwin/BulkDock/SCRATCH/511020/C24467-P40/C24467-P40.minimised.mol

>  <scratch_subdir>  (734) 
/opt/xchem-fragalysis-2/maxwin/BulkDock/SCRATCH/511020/C24467-P40

>  <fragmenstein_runtime>  (734) 
6.368590831756592

>  <fragmenstein_outcome>  (734) 
too moved

>  <fragmenstein_mode>  (734) 
expansion

>  <fragmenstein_error>  (734) 


$$$$
C24467-P122
     RDKit          3D

 41 43  0  0  0  0  0  0  0  0999 V2000
    8.4604   -4.2928   20.1663 C   0  0  0  0  0  0  0  0  0  0  0  0
    8.5724   -3.1750   21.2540 N   0  0  0  0  0  0  0  0  0  0  0  0
   10.7287   -3.4486   20.9601 C   0  0  0  0  0  0  0  0  0  0  0  0
   12.4273   -3.4598   20.2097 C   0  0  0  0  0  0  0  0  0  0  0  0
   13.6318   -3.3698   20.9794 C   0  0  0  0  0  0  0  0  0  0  0  0
   14.7428   -3.5238   20.2532 N   0  0  0  0  0  0  0  0  0  0  0  0
   14.2884   -3.7329   19.0133 N   0  0  0  0  0  0  0  0  0  0  0  0
   12.9311   -3.7700   18.9371 C   0  0  0  0  0  0  0  0  0  0  0  0
    7.3982   -1.6394   20.7880 C   0  0  0  0  0  0  0  0  0  0  0  0
    7.7617   -0.6767   20.1381 O   0  0  0  0  0  0  0  0  0  0  0  0
    5.6664   -1.8806   21.6903 C   0  0  0  0  0  0  0  0  0  0  0  0
    5.4025   -2.9750   20.7652 N   0  0  0  0  0  0  0  0  0  0  0  0
    5.2303   -1.9979   23.5587 C   0  0  0  0  0  0  0  0  0  0  0  0
    4.4306   -1.5177   25.0059 C   0  0  0  0  0  0  0  0  0  0  0  0
    3.5014   -2.4419   25.4210 C   0  0  0  0  0  0  0  0  0  0  0  0
    2.8752   -2.1303   26.5667 N   0  0  0  0  0  0  0  0  0  0  0  0
    3.5081   -1.0938   27.1506 C   0  0  0  0  0  0  0  0  0  0  0  0
    3.2356   -0.5674   28.4230 C   0  0  0  0  0  0  0  0  0  0  0  0
    4.0618    0.4264   28.9043 C   0  0  0  0  0  0  0  0  0  0  0  0
    5.1085    0.8621   28.1163 C   0  0  0  0  0  0  0  0  0  0  0  0
    5.3395    0.3290   26.8268 C   0  0  0  0  0  0  0  0  0  0  0  0
    4.5264   -0.6825   26.2544 C   0  0  0  0  0  0  0  0  0  0  0  0
    9.2763   -4.9864   19.9444 H   0  0  0  0  0  0  0  0  0  0  0  0
    7.4609   -4.6581   19.8093 H   0  0  0  0  0  0  0  0  0  0  0  0
    8.0276   -4.7643   21.0349 H   0  0  0  0  0  0  0  0  0  0  0  0
   11.0474   -4.6087   20.9487 H   0  0  0  0  0  0  0  0  0  0  0  0
   11.1906   -3.3386   22.0060 H   0  0  0  0  0  0  0  0  0  0  0  0
   13.7240   -3.1964   22.0448 H   0  0  0  0  0  0  0  0  0  0  0  0
   14.9612   -3.8814   18.2681 H   0  0  0  0  0  0  0  0  0  0  0  0
   12.4568   -4.0155   17.9977 H   0  0  0  0  0  0  0  0  0  0  0  0
    5.3417   -0.8283   21.6759 H   0  0  0  0  0  0  0  0  0  0  0  0
    6.2882   -3.3321   20.4509 H   0  0  0  0  0  0  0  0  0  0  0  0
    5.3611   -2.5402   19.8348 H   0  0  0  0  0  0  0  0  0  0  0  0
    4.2319   -2.3594   23.3002 H   0  0  0  0  0  0  0  0  0  0  0  0
    5.9352   -2.6327   24.0754 H   0  0  0  0  0  0  0  0  0  0  0  0
    3.2072   -3.3161   24.8973 H   0  0  0  0  0  0  0  0  0  0  0  0
    2.0724   -2.6174   26.9325 H   0  0  0  0  0  0  0  0  0  0  0  0
    2.4203   -0.9534   29.0255 H   0  0  0  0  0  0  0  0  0  0  0  0
    3.8989    0.8499   29.8898 H   0  0  0  0  0  0  0  0  0  0  0  0
    5.7756    1.6356   28.4901 H   0  0  0  0  0  0  0  0  0  0  0  0
    6.1907    0.7575   26.3260 H   0  0  0  0  0  0  0  0  0  0  0  0
  1  2  1  0
  2  3  1  0
  3  4  1  0
  4  5  1  0
  5  6  2  0
  6  7  1  0
  7  8  1  0
  2  9  1  0
  9 10  2  0
  9 11  1  0
 11 12  1  0
 11 13  1  0
 13 14  1  0
 14 15  2  0
 15 16  1  0
 16 17  1  0
 17 18  2  0
 18 19  1  0
 19 20  2  0
 20 21  1  0
 21 22  2  0
  8  4  2  0
 22 14  1  0
 22 17  1  0
  1 23  1  0
  1 24  1  0
  1 25  1  0
  3 26  1  0
  3 27  1  0
  5 28  1  0
  7 29  1  0
  8 30  1  0
 11 31  1  0
 12 32  1  0
 12 33  1  0
 13 34  1  0
 13 35  1  0
 15 36  1  0
 16 37  1  0
 18 38  1  0
 19 39  1  0
 20 40  1  0
 21 41  1  0
M  END
>  <Energy>  (735) 
758.88523142024201

>  <compound_id>  (735) 
24467

>  <target_id>  (735) 
1

>  <reference_id>  (735) 
122

>  <inspiration_ids>  (735) 
[40, 122]

>  <energy_score>  (735) 
652.1100260934124

>  <distance_score>  (735) 
6.328511438218936

>  <path>  (735) 
/opt/xchem-fragalysis-2/maxwin/BulkDock/SCRATCH/511020/C24467-P122/C24467-P122.minimised.mol

>  <scratch_subdir>  (735) 
/opt/xchem-fragalysis-2/maxwin/BulkDock/SCRATCH/511020/C24467-P122

>  <fragmenstein_runtime>  (735) 
10.571774959564209

>  <fragmenstein_outcome>  (735) 
too moved

>  <fragmenstein_mode>  (735) 
expansion

>  <fragmenstein_error>  (735) 


$$$$
C24468-P40
     RDKit          3D

 43 45  0  0  0  0  0  0  0  0999 V2000
    6.9674   -5.4697   22.0258 C   0  0  0  0  0  0  0  0  0  0  0  0
    7.1684   -7.1313   21.0107 C   0  0  0  0  0  0  0  0  0  0  0  0
    6.6415   -7.1704   23.0468 C   0  0  0  0  0  0  0  0  0  0  0  0
    5.3092   -7.0142   24.0861 C   0  0  0  0  0  0  0  0  0  0  0  0
    5.4411   -7.6868   25.5290 N   0  0  0  0  0  0  0  0  0  0  0  0
    5.7611   -6.9827   27.1120 C   0  0  0  0  0  0  0  0  0  0  0  0
    6.0591   -5.7368   27.4979 O   0  0  0  0  0  0  0  0  0  0  0  0
    5.6160   -7.7150   28.1167 C   0  0  0  0  0  0  0  0  0  0  0  0
    7.1829   -7.4781   27.3346 C   0  0  0  0  0  0  0  0  0  0  0  0
    7.3987   -6.2252   26.0897 C   0  0  0  0  0  0  0  0  0  0  0  0
    5.9830   -5.2323   25.6671 C   0  0  0  0  0  0  0  0  0  0  0  0
    4.3790   -5.5022   26.4292 C   0  0  0  0  0  0  0  0  0  0  0  0
    3.2059   -4.7484   26.5769 C   0  0  0  0  0  0  0  0  0  0  0  0
    2.4134   -5.3155   27.5585 C   0  0  0  0  0  0  0  0  0  0  0  0
    2.9803   -6.4211   28.1681 N   0  0  0  0  0  0  0  0  0  0  0  0
    4.2184   -6.7259   27.6598 C   0  0  0  0  0  0  0  0  0  0  0  0
    9.3082   -7.3783   20.6063 N   0  0  0  0  0  0  0  0  0  0  0  0
   10.6997   -6.2056   20.9630 C   0  0  0  0  0  0  0  0  0  0  0  0
   10.5828   -5.0970   21.3689 O   0  0  0  0  0  0  0  0  0  0  0  0
   12.0986   -6.5456   20.9298 C   0  0  0  0  0  0  0  0  0  0  0  0
   12.7523   -7.3624   21.9061 C   0  0  0  0  0  0  0  0  0  0  0  0
   14.0598   -7.1016   22.0121 N   0  0  0  0  0  0  0  0  0  0  0  0
   14.2359   -6.0104   21.2388 N   0  0  0  0  0  0  0  0  0  0  0  0
   13.0907   -5.5916   20.6369 C   0  0  0  0  0  0  0  0  0  0  0  0
    6.2051   -5.4434   22.8154 H   0  0  0  0  0  0  0  0  0  0  0  0
    7.4331   -4.6319   21.4042 H   0  0  0  0  0  0  0  0  0  0  0  0
    7.2622   -4.9743   22.9320 H   0  0  0  0  0  0  0  0  0  0  0  0
    6.6905   -7.3416   20.0662 H   0  0  0  0  0  0  0  0  0  0  0  0
    7.2104   -7.9089   23.6914 H   0  0  0  0  0  0  0  0  0  0  0  0
    7.2374   -6.5464   23.6875 H   0  0  0  0  0  0  0  0  0  0  0  0
    4.5274   -7.6590   23.6743 H   0  0  0  0  0  0  0  0  0  0  0  0
    4.8643   -6.0522   24.1457 H   0  0  0  0  0  0  0  0  0  0  0  0
    5.3308   -8.6884   25.6137 H   0  0  0  0  0  0  0  0  0  0  0  0
    8.0585   -8.0124   27.7027 H   0  0  0  0  0  0  0  0  0  0  0  0
    8.3931   -5.9445   25.7706 H   0  0  0  0  0  0  0  0  0  0  0  0
    6.0726   -4.3174   25.0988 H   0  0  0  0  0  0  0  0  0  0  0  0
    3.0458   -3.7942   26.1057 H   0  0  0  0  0  0  0  0  0  0  0  0
    1.4890   -4.9323   27.9712 H   0  0  0  0  0  0  0  0  0  0  0  0
    2.6152   -6.8140   29.0165 H   0  0  0  0  0  0  0  0  0  0  0  0
    9.6736   -8.2249   20.1944 H   0  0  0  0  0  0  0  0  0  0  0  0
   12.3125   -8.1074   22.5566 H   0  0  0  0  0  0  0  0  0  0  0  0
   15.1549   -5.5816   21.2056 H   0  0  0  0  0  0  0  0  0  0  0  0
   13.0344   -4.6521   20.1036 H   0  0  0  0  0  0  0  0  0  0  0  0
  1  2  1  0
  2  3  1  0
  3  4  1  0
  4  5  1  0
  5  6  1  0
  6  7  2  0
  6  8  1  0
  8  9  2  0
  9 10  1  0
 10 11  2  0
 11 12  1  0
 12 13  1  0
 13 14  2  0
 14 15  1  0
 15 16  1  0
  2 17  1  0
 17 18  1  0
 18 19  2  0
 18 20  1  0
 20 21  1  0
 21 22  2  0
 22 23  1  0
 23 24  1  0
 16  8  1  0
 24 20  2  0
 16 12  2  0
  1 25  1  0
  1 26  1  0
  1 27  1  0
  2 28  1  0
  3 29  1  0
  3 30  1  0
  4 31  1  0
  4 32  1  0
  5 33  1  0
  9 34  1  0
 10 35  1  0
 11 36  1  0
 13 37  1  0
 14 38  1  0
 15 39  1  0
 17 40  1  0
 21 41  1  0
 23 42  1  0
 24 43  1  0
M  END
>  <Energy>  (736) 
1328.5766359870665

>  <compound_id>  (736) 
24468

>  <target_id>  (736) 
1

>  <reference_id>  (736) 
40

>  <inspiration_ids>  (736) 
[40, 122]

>  <energy_score>  (736) 
1294.1712345461299

>  <distance_score>  (736) 
6.805433997110955

>  <path>  (736) 
/opt/xchem-fragalysis-2/maxwin/BulkDock/SCRATCH/511020/C24468-P40/C24468-P40.minimised.mol

>  <scratch_subdir>  (736) 
/opt/xchem-fragalysis-2/maxwin/BulkDock/SCRATCH/511020/C24468-P40

>  <fragmenstein_runtime>  (736) 
11.106926441192627

>  <fragmenstein_outcome>  (736) 
too moved

>  <fragmenstein_mode>  (736) 
expansion

>  <fragmenstein_error>  (736) 


$$$$
C24468-P122
     RDKit          3D

 43 45  0  0  0  0  0  0  0  0999 V2000
    6.9039   -6.3570   22.9780 C   0  0  0  0  0  0  0  0  0  0  0  0
    7.5971   -4.9302   22.4828 C   0  0  0  0  0  0  0  0  0  0  0  0
    6.7781   -3.7447   23.7738 C   0  0  0  0  0  0  0  0  0  0  0  0
    5.4302   -2.3655   24.3147 C   0  0  0  0  0  0  0  0  0  0  0  0
    4.5307   -2.3770   25.5404 N   0  0  0  0  0  0  0  0  0  0  0  0
    4.6221   -1.6458   26.7942 C   0  0  0  0  0  0  0  0  0  0  0  0
    5.3820   -0.7830   27.1459 O   0  0  0  0  0  0  0  0  0  0  0  0
    3.7149   -2.0774   27.9004 C   0  0  0  0  0  0  0  0  0  0  0  0
    4.4159   -2.7202   28.9589 C   0  0  0  0  0  0  0  0  0  0  0  0
    3.7873   -3.3341   30.0419 C   0  0  0  0  0  0  0  0  0  0  0  0
    2.4032   -3.3199   30.1307 C   0  0  0  0  0  0  0  0  0  0  0  0
    1.6764   -2.6051   29.1642 C   0  0  0  0  0  0  0  0  0  0  0  0
    0.2968   -2.3037   29.0401 C   0  0  0  0  0  0  0  0  0  0  0  0
    0.1701   -1.4362   27.9859 C   0  0  0  0  0  0  0  0  0  0  0  0
    1.3994   -1.3014   27.3991 N   0  0  0  0  0  0  0  0  0  0  0  0
    2.3443   -1.9967   28.0885 C   0  0  0  0  0  0  0  0  0  0  0  0
    8.4213   -4.6457   20.6360 N   0  0  0  0  0  0  0  0  0  0  0  0
   10.0617   -5.3408   19.8457 C   0  0  0  0  0  0  0  0  0  0  0  0
   10.7282   -6.0370   20.4928 O   0  0  0  0  0  0  0  0  0  0  0  0
   11.0193   -4.9523   18.1329 C   0  0  0  0  0  0  0  0  0  0  0  0
   12.5699   -4.7007   18.5736 C   0  0  0  0  0  0  0  0  0  0  0  0
   13.3781   -4.2384   17.6337 N   0  0  0  0  0  0  0  0  0  0  0  0
   12.5793   -4.1891   16.5769 N   0  0  0  0  0  0  0  0  0  0  0  0
   11.2364   -4.3852   16.8361 C   0  0  0  0  0  0  0  0  0  0  0  0
    7.5374   -6.9310   23.6476 H   0  0  0  0  0  0  0  0  0  0  0  0
    6.0202   -6.2829   23.5997 H   0  0  0  0  0  0  0  0  0  0  0  0
    6.6437   -6.9419   22.1290 H   0  0  0  0  0  0  0  0  0  0  0  0
    8.2879   -5.2358   23.2250 H   0  0  0  0  0  0  0  0  0  0  0  0
    6.6416   -3.3518   22.8260 H   0  0  0  0  0  0  0  0  0  0  0  0
    7.5421   -3.4840   24.4747 H   0  0  0  0  0  0  0  0  0  0  0  0
    4.8738   -1.9805   23.4593 H   0  0  0  0  0  0  0  0  0  0  0  0
    6.0755   -1.6536   24.7778 H   0  0  0  0  0  0  0  0  0  0  0  0
    3.7172   -2.9724   25.5647 H   0  0  0  0  0  0  0  0  0  0  0  0
    5.5053   -2.7681   28.8960 H   0  0  0  0  0  0  0  0  0  0  0  0
    4.3795   -3.8248   30.8085 H   0  0  0  0  0  0  0  0  0  0  0  0
    1.8983   -3.7902   30.9696 H   0  0  0  0  0  0  0  0  0  0  0  0
   -0.5012   -2.6174   29.6989 H   0  0  0  0  0  0  0  0  0  0  0  0
   -0.6933   -0.9196   27.5913 H   0  0  0  0  0  0  0  0  0  0  0  0
    1.6264   -0.7462   26.5900 H   0  0  0  0  0  0  0  0  0  0  0  0
    7.9162   -4.1408   19.9435 H   0  0  0  0  0  0  0  0  0  0  0  0
   12.9213   -4.8625   19.5870 H   0  0  0  0  0  0  0  0  0  0  0  0
   12.9845   -3.8750   15.7044 H   0  0  0  0  0  0  0  0  0  0  0  0
   10.6223   -4.0186   16.0325 H   0  0  0  0  0  0  0  0  0  0  0  0
  1  2  1  0
  2  3  1  0
  3  4  1  0
  4  5  1  0
  5  6  1  0
  6  7  2  0
  6  8  1  0
  8  9  2  0
  9 10  1  0
 10 11  2  0
 11 12  1  0
 12 13  1  0
 13 14  2  0
 14 15  1  0
 15 16  1  0
  2 17  1  0
 17 18  1  0
 18 19  2  0
 18 20  1  0
 20 21  1  0
 21 22  2  0
 22 23  1  0
 23 24  1  0
 16  8  1  0
 24 20  2  0
 16 12  2  0
  1 25  1  0
  1 26  1  0
  1 27  1  0
  2 28  1  0
  3 29  1  0
  3 30  1  0
  4 31  1  0
  4 32  1  0
  5 33  1  0
  9 34  1  0
 10 35  1  0
 11 36  1  0
 13 37  1  0
 14 38  1  0
 15 39  1  0
 17 40  1  0
 21 41  1  0
 23 42  1  0
 24 43  1  0
M  END
>  <Energy>  (737) 
580.80920012386593

>  <compound_id>  (737) 
24468

>  <target_id>  (737) 
1

>  <reference_id>  (737) 
122

>  <inspiration_ids>  (737) 
[40, 122]

>  <energy_score>  (737) 
546.4037986829348

>  <distance_score>  (737) 
5.541388640140585

>  <path>  (737) 
/opt/xchem-fragalysis-2/maxwin/BulkDock/SCRATCH/511020/C24468-P122/C24468-P122.minimised.mol

>  <scratch_subdir>  (737) 
/opt/xchem-fragalysis-2/maxwin/BulkDock/SCRATCH/511020/C24468-P122

>  <fragmenstein_runtime>  (737) 
16.469104528427124

>  <fragmenstein_outcome>  (737) 
too moved

>  <fragmenstein_mode>  (737) 
expansion

>  <fragmenstein_error>  (737) 


$$$$
C30253-P40
     RDKit          3D

 43 45  0  0  0  0  0  0  0  0999 V2000
    4.9385    0.3228   23.7702 C   0  0  0  0  0  0  0  0  0  0  0  0
    5.1590   -0.6562   22.1928 C   0  0  0  0  0  0  0  0  0  0  0  0
    4.8838   -1.8619   23.2641 C   0  0  0  0  0  0  0  0  0  0  0  0
    5.3134   -2.1727   24.8269 C   0  0  0  0  0  0  0  0  0  0  0  0
    4.3166   -2.2796   25.8743 N   0  0  0  0  0  0  0  0  0  0  0  0
    3.7457   -3.4305   26.5179 C   0  0  0  0  0  0  0  0  0  0  0  0
    3.8889   -4.6012   26.2984 O   0  0  0  0  0  0  0  0  0  0  0  0
    2.8185   -3.1453   27.6944 C   0  0  0  0  0  0  0  0  0  0  0  0
    2.5025   -1.8796   28.2197 C   0  0  0  0  0  0  0  0  0  0  0  0
    1.6012   -1.7249   29.2789 C   0  0  0  0  0  0  0  0  0  0  0  0
    0.9721   -2.8267   29.8613 C   0  0  0  0  0  0  0  0  0  0  0  0
    1.2607   -4.1090   29.3736 C   0  0  0  0  0  0  0  0  0  0  0  0
    0.8002   -5.4109   29.7077 C   0  0  0  0  0  0  0  0  0  0  0  0
    1.4112   -6.2970   28.8546 C   0  0  0  0  0  0  0  0  0  0  0  0
    2.2704   -5.5909   28.0631 N   0  0  0  0  0  0  0  0  0  0  0  0
    2.1691   -4.2386   28.3244 C   0  0  0  0  0  0  0  0  0  0  0  0
    6.4737   -0.7267   20.6160 N   0  0  0  0  0  0  0  0  0  0  0  0
    7.3848    0.6109   19.7261 C   0  0  0  0  0  0  0  0  0  0  0  0
    7.3464    1.7438   20.1008 O   0  0  0  0  0  0  0  0  0  0  0  0
    8.1826    0.5519   18.3602 C   0  0  0  0  0  0  0  0  0  0  0  0
    8.5078    1.9142   17.8281 C   0  0  0  0  0  0  0  0  0  0  0  0
    9.1119    1.8153   16.6035 C   0  0  0  0  0  0  0  0  0  0  0  0
    9.1415    0.4930   16.3834 N   0  0  0  0  0  0  0  0  0  0  0  0
    8.8733   -0.2179   17.4912 N   0  0  0  0  0  0  0  0  0  0  0  0
    4.4897    1.3187   23.5651 H   0  0  0  0  0  0  0  0  0  0  0  0
    4.1457   -0.0977   24.4226 H   0  0  0  0  0  0  0  0  0  0  0  0
    5.7347    0.3376   24.5255 H   0  0  0  0  0  0  0  0  0  0  0  0
    4.4978   -0.0653   21.6088 H   0  0  0  0  0  0  0  0  0  0  0  0
    5.5375   -2.5876   22.7932 H   0  0  0  0  0  0  0  0  0  0  0  0
    3.8033   -2.0278   23.2536 H   0  0  0  0  0  0  0  0  0  0  0  0
    6.0945   -1.5516   25.2640 H   0  0  0  0  0  0  0  0  0  0  0  0
    5.7014   -3.1941   24.8164 H   0  0  0  0  0  0  0  0  0  0  0  0
    4.0382   -1.4519   26.3750 H   0  0  0  0  0  0  0  0  0  0  0  0
    2.9318   -0.9664   27.8220 H   0  0  0  0  0  0  0  0  0  0  0  0
    1.3744   -0.7267   29.6495 H   0  0  0  0  0  0  0  0  0  0  0  0
    0.2643   -2.6845   30.6730 H   0  0  0  0  0  0  0  0  0  0  0  0
    0.0750   -5.6574   30.4724 H   0  0  0  0  0  0  0  0  0  0  0  0
    1.2928   -7.3600   28.7442 H   0  0  0  0  0  0  0  0  0  0  0  0
    2.8918   -5.9521   27.3439 H   0  0  0  0  0  0  0  0  0  0  0  0
    6.5627   -1.5864   20.0941 H   0  0  0  0  0  0  0  0  0  0  0  0
    8.2301    2.8500   18.2980 H   0  0  0  0  0  0  0  0  0  0  0  0
    9.4362    2.5532   15.8851 H   0  0  0  0  0  0  0  0  0  0  0  0
    9.4433    0.0050   15.5431 H   0  0  0  0  0  0  0  0  0  0  0  0
  1  2  1  0
  2  3  1  0
  3  4  1  0
  4  5  1  0
  5  6  1  0
  6  7  2  0
  6  8  1  0
  8  9  2  0
  9 10  1  0
 10 11  2  0
 11 12  1  0
 12 13  1  0
 13 14  2  0
 14 15  1  0
 15 16  1  0
  2 17  1  0
 17 18  1  0
 18 19  2  0
 18 20  1  0
 20 21  1  0
 21 22  2  0
 22 23  1  0
 23 24  1  0
 16  8  1  0
 24 20  2  0
 16 12  2  0
  1 25  1  0
  1 26  1  0
  1 27  1  0
  2 28  1  0
  3 29  1  0
  3 30  1  0
  4 31  1  0
  4 32  1  0
  5 33  1  0
  9 34  1  0
 10 35  1  0
 11 36  1  0
 13 37  1  0
 14 38  1  0
 15 39  1  0
 17 40  1  0
 21 41  1  0
 22 42  1  0
 23 43  1  0
M  END
>  <Energy>  (738) 
379.76225666124873

>  <compound_id>  (738) 
30253

>  <target_id>  (738) 
1

>  <reference_id>  (738) 
40

>  <inspiration_ids>  (738) 
[40, 122]

>  <energy_score>  (738) 
320.2071181420906

>  <distance_score>  (738) 
5.448794613938

>  <path>  (738) 
/opt/xchem-fragalysis-2/maxwin/BulkDock/SCRATCH/511020/C30253-P40/C30253-P40.minimised.mol

>  <scratch_subdir>  (738) 
/opt/xchem-fragalysis-2/maxwin/BulkDock/SCRATCH/511020/C30253-P40

>  <fragmenstein_runtime>  (738) 
11.108704566955566

>  <fragmenstein_outcome>  (738) 
too moved

>  <fragmenstein_mode>  (738) 
expansion

>  <fragmenstein_error>  (738) 


$$$$
C30253-P122
     RDKit          3D

 43 45  0  0  0  0  0  0  0  0999 V2000
    5.1329    0.0331   21.6944 C   0  0  0  0  0  0  0  0  0  0  0  0
    5.8407   -1.2650   21.6307 C   0  0  0  0  0  0  0  0  0  0  0  0
    5.2586   -1.9248   23.4214 C   0  0  0  0  0  0  0  0  0  0  0  0
    4.3311   -1.2847   24.7492 C   0  0  0  0  0  0  0  0  0  0  0  0
    4.2998   -1.8325   26.0786 N   0  0  0  0  0  0  0  0  0  0  0  0
    3.5579   -1.4368   27.2388 C   0  0  0  0  0  0  0  0  0  0  0  0
    2.8336   -0.5003   27.4236 O   0  0  0  0  0  0  0  0  0  0  0  0
    3.6008   -2.3795   28.3772 C   0  0  0  0  0  0  0  0  0  0  0  0
    4.7381   -2.5784   29.1612 C   0  0  0  0  0  0  0  0  0  0  0  0
    4.6886   -3.4302   30.2688 C   0  0  0  0  0  0  0  0  0  0  0  0
    3.5090   -4.1110   30.6125 C   0  0  0  0  0  0  0  0  0  0  0  0
    2.3513   -3.9218   29.8351 C   0  0  0  0  0  0  0  0  0  0  0  0
    1.0271   -4.4400   29.8789 C   0  0  0  0  0  0  0  0  0  0  0  0
    0.3206   -3.8647   28.8468 C   0  0  0  0  0  0  0  0  0  0  0  0
    1.1604   -3.0051   28.1882 N   0  0  0  0  0  0  0  0  0  0  0  0
    2.4174   -3.0499   28.7497 C   0  0  0  0  0  0  0  0  0  0  0  0
    7.1168   -0.6212   20.2950 N   0  0  0  0  0  0  0  0  0  0  0  0
    6.9777   -0.4814   18.6351 C   0  0  0  0  0  0  0  0  0  0  0  0
    6.0526   -0.8516   17.9370 O   0  0  0  0  0  0  0  0  0  0  0  0
    8.1843    0.2198   17.6535 C   0  0  0  0  0  0  0  0  0  0  0  0
    8.4501    1.5895   17.2615 C   0  0  0  0  0  0  0  0  0  0  0  0
    9.3366    1.5552   16.2117 C   0  0  0  0  0  0  0  0  0  0  0  0
    9.4552    0.2449   15.8881 N   0  0  0  0  0  0  0  0  0  0  0  0
    8.8905   -0.5678   16.7910 N   0  0  0  0  0  0  0  0  0  0  0  0
    4.2191    0.5378   21.4710 H   0  0  0  0  0  0  0  0  0  0  0  0
    4.6010   -0.4363   22.3882 H   0  0  0  0  0  0  0  0  0  0  0  0
    5.7379    0.8334   21.9388 H   0  0  0  0  0  0  0  0  0  0  0  0
    5.6584   -2.2644   21.1815 H   0  0  0  0  0  0  0  0  0  0  0  0
    5.9441   -2.5402   23.9692 H   0  0  0  0  0  0  0  0  0  0  0  0
    4.3288   -2.3954   23.1461 H   0  0  0  0  0  0  0  0  0  0  0  0
    4.3772   -0.2088   24.9193 H   0  0  0  0  0  0  0  0  0  0  0  0
    3.2961   -1.5208   24.5030 H   0  0  0  0  0  0  0  0  0  0  0  0
    4.8754   -2.6411   26.3118 H   0  0  0  0  0  0  0  0  0  0  0  0
    5.6567   -2.0487   28.9201 H   0  0  0  0  0  0  0  0  0  0  0  0
    5.5766   -3.5574   30.8843 H   0  0  0  0  0  0  0  0  0  0  0  0
    3.4825   -4.7622   31.4821 H   0  0  0  0  0  0  0  0  0  0  0  0
    0.6382   -5.1516   30.5968 H   0  0  0  0  0  0  0  0  0  0  0  0
   -0.7102   -3.9650   28.5372 H   0  0  0  0  0  0  0  0  0  0  0  0
    0.9176   -2.4126   27.4004 H   0  0  0  0  0  0  0  0  0  0  0  0
    8.0232   -0.3011   20.5767 H   0  0  0  0  0  0  0  0  0  0  0  0
    7.9847    2.4805   17.6576 H   0  0  0  0  0  0  0  0  0  0  0  0
    9.7795    2.3351   15.6097 H   0  0  0  0  0  0  0  0  0  0  0  0
    9.9074   -0.1711   15.0755 H   0  0  0  0  0  0  0  0  0  0  0  0
  1  2  1  0
  2  3  1  0
  3  4  1  0
  4  5  1  0
  5  6  1  0
  6  7  2  0
  6  8  1  0
  8  9  2  0
  9 10  1  0
 10 11  2  0
 11 12  1  0
 12 13  1  0
 13 14  2  0
 14 15  1  0
 15 16  1  0
  2 17  1  0
 17 18  1  0
 18 19  2  0
 18 20  1  0
 20 21  1  0
 21 22  2  0
 22 23  1  0
 23 24  1  0
 16  8  1  0
 24 20  2  0
 16 12  2  0
  1 25  1  0
  1 26  1  0
  1 27  1  0
  2 28  1  0
  3 29  1  0
  3 30  1  0
  4 31  1  0
  4 32  1  0
  5 33  1  0
  9 34  1  0
 10 35  1  0
 11 36  1  0
 13 37  1  0
 14 38  1  0
 15 39  1  0
 17 40  1  0
 21 41  1  0
 22 42  1  0
 23 43  1  0
M  END
>  <Energy>  (739) 
384.86014335333186

>  <compound_id>  (739) 
30253

>  <target_id>  (739) 
1

>  <reference_id>  (739) 
122

>  <inspiration_ids>  (739) 
[40, 122]

>  <energy_score>  (739) 
325.3050048341734

>  <distance_score>  (739) 
5.668099397424355

>  <path>  (739) 
/opt/xchem-fragalysis-2/maxwin/BulkDock/SCRATCH/511020/C30253-P122/C30253-P122.minimised.mol

>  <scratch_subdir>  (739) 
/opt/xchem-fragalysis-2/maxwin/BulkDock/SCRATCH/511020/C30253-P122

>  <fragmenstein_runtime>  (739) 
19.17606544494629

>  <fragmenstein_outcome>  (739) 
too moved

>  <fragmenstein_mode>  (739) 
expansion

>  <fragmenstein_error>  (739) 


$$$$
C24469-P40
     RDKit          3D

 39 41  0  0  0  0  0  0  0  0999 V2000
    5.9054   -3.0864   26.7821 O   0  0  0  0  0  0  0  0  0  0  0  0
    5.1568   -3.8971   26.3154 C   0  0  0  0  0  0  0  0  0  0  0  0
    5.2858   -4.7407   25.1397 N   0  0  0  0  0  0  0  0  0  0  0  0
    6.3054   -4.7893   24.1296 C   0  0  0  0  0  0  0  0  0  0  0  0
    6.8487   -5.4054   22.7008 C   0  0  0  0  0  0  0  0  0  0  0  0
    7.7918   -4.4332   21.1332 C   0  0  0  0  0  0  0  0  0  0  0  0
    9.7972   -5.0079   20.6746 C   0  0  0  0  0  0  0  0  0  0  0  0
   11.3622   -4.8592   21.4099 C   0  0  0  0  0  0  0  0  0  0  0  0
   12.2373   -3.7943   21.6965 C   0  0  0  0  0  0  0  0  0  0  0  0
   13.4682   -4.1643   22.0561 N   0  0  0  0  0  0  0  0  0  0  0  0
   13.4171   -5.4901   22.0109 N   0  0  0  0  0  0  0  0  0  0  0  0
   12.1799   -5.9573   21.6968 C   0  0  0  0  0  0  0  0  0  0  0  0
    3.9000   -3.9545   27.0825 C   0  0  0  0  0  0  0  0  0  0  0  0
    3.3555   -2.7935   27.6611 C   0  0  0  0  0  0  0  0  0  0  0  0
    2.2504   -2.8620   28.4967 C   0  0  0  0  0  0  0  0  0  0  0  0
    1.7581   -1.7374   29.0313 F   0  0  0  0  0  0  0  0  0  0  0  0
    1.6464   -4.0771   28.8032 C   0  0  0  0  0  0  0  0  0  0  0  0
    2.1937   -5.2475   28.2539 C   0  0  0  0  0  0  0  0  0  0  0  0
    1.8552   -6.6156   28.3241 C   0  0  0  0  0  0  0  0  0  0  0  0
    2.7008   -7.2750   27.4617 C   0  0  0  0  0  0  0  0  0  0  0  0
    3.6808   -6.4269   27.0706 N   0  0  0  0  0  0  0  0  0  0  0  0
    3.3042   -5.1593   27.4129 C   0  0  0  0  0  0  0  0  0  0  0  0
    4.4249   -5.2442   24.9994 H   0  0  0  0  0  0  0  0  0  0  0  0
    6.1183   -3.7669   23.8229 H   0  0  0  0  0  0  0  0  0  0  0  0
    7.1099   -5.0002   24.8428 H   0  0  0  0  0  0  0  0  0  0  0  0
    6.3086   -6.2659   22.2895 H   0  0  0  0  0  0  0  0  0  0  0  0
    7.2031   -6.3055   23.2326 H   0  0  0  0  0  0  0  0  0  0  0  0
    7.5643   -3.3748   21.2936 H   0  0  0  0  0  0  0  0  0  0  0  0
    7.2231   -4.6022   20.1714 H   0  0  0  0  0  0  0  0  0  0  0  0
    9.8937   -5.3114   19.6294 H   0  0  0  0  0  0  0  0  0  0  0  0
   10.0857   -6.0783   20.8106 H   0  0  0  0  0  0  0  0  0  0  0  0
   12.0903   -2.7483   21.6419 H   0  0  0  0  0  0  0  0  0  0  0  0
   14.2615   -6.0130   22.2186 H   0  0  0  0  0  0  0  0  0  0  0  0
   11.9976   -7.0195   21.6535 H   0  0  0  0  0  0  0  0  0  0  0  0
    3.8150   -1.8249   27.4727 H   0  0  0  0  0  0  0  0  0  0  0  0
    0.7786   -4.0951   29.4540 H   0  0  0  0  0  0  0  0  0  0  0  0
    1.0127   -7.0391   28.8548 H   0  0  0  0  0  0  0  0  0  0  0  0
    2.7036   -8.2762   27.0648 H   0  0  0  0  0  0  0  0  0  0  0  0
    4.4924   -6.6699   26.5095 H   0  0  0  0  0  0  0  0  0  0  0  0
  1  2  2  0
  2  3  1  0
  3  4  1  0
  4  5  1  0
  5  6  1  0
  6  7  1  0
  7  8  1  0
  8  9  1  0
  9 10  2  0
 10 11  1  0
 11 12  1  0
  2 13  1  0
 13 14  2  0
 14 15  1  0
 15 16  1  0
 15 17  2  0
 17 18  1  0
 18 19  1  0
 19 20  2  0
 20 21  1  0
 21 22  1  0
 12  8  2  0
 22 13  1  0
 22 18  2  0
  3 23  1  0
  4 24  1  0
  4 25  1  0
  5 26  1  0
  5 27  1  0
  6 28  1  0
  6 29  1  0
  7 30  1  0
  7 31  1  0
  9 32  1  0
 11 33  1  0
 12 34  1  0
 14 35  1  0
 17 36  1  0
 19 37  1  0
 20 38  1  0
 21 39  1  0
M  END
>  <Energy>  (740) 
330.47577924295894

>  <compound_id>  (740) 
24469

>  <target_id>  (740) 
1

>  <reference_id>  (740) 
40

>  <inspiration_ids>  (740) 
[40, 122]

>  <energy_score>  (740) 
306.0081663946821

>  <distance_score>  (740) 
6.111109667262448

>  <path>  (740) 
/opt/xchem-fragalysis-2/maxwin/BulkDock/SCRATCH/511020/C24469-P40/C24469-P40.minimised.mol

>  <scratch_subdir>  (740) 
/opt/xchem-fragalysis-2/maxwin/BulkDock/SCRATCH/511020/C24469-P40

>  <fragmenstein_runtime>  (740) 
7.11297607421875

>  <fragmenstein_outcome>  (740) 
too moved

>  <fragmenstein_mode>  (740) 
expansion

>  <fragmenstein_error>  (740) 


$$$$
C24469-P122
     RDKit          3D

 39 41  0  0  0  0  0  0  0  0999 V2000
    6.1591   -2.4351   28.5723 O   0  0  0  0  0  0  0  0  0  0  0  0
    5.0700   -2.2495   28.1025 C   0  0  0  0  0  0  0  0  0  0  0  0
    4.6754   -1.8652   26.7786 N   0  0  0  0  0  0  0  0  0  0  0  0
    5.4817   -1.4806   25.5995 C   0  0  0  0  0  0  0  0  0  0  0  0
    5.8831   -2.5416   24.1986 C   0  0  0  0  0  0  0  0  0  0  0  0
    7.1700   -3.7489   23.0937 C   0  0  0  0  0  0  0  0  0  0  0  0
    8.4700   -3.4800   21.4492 C   0  0  0  0  0  0  0  0  0  0  0  0
   10.7534   -3.4083   21.4543 C   0  0  0  0  0  0  0  0  0  0  0  0
   11.9174   -4.4413   20.8300 C   0  0  0  0  0  0  0  0  0  0  0  0
   13.1726   -4.3829   21.2537 N   0  0  0  0  0  0  0  0  0  0  0  0
   13.0475   -3.6834   22.3617 N   0  0  0  0  0  0  0  0  0  0  0  0
   11.7452   -3.4541   22.7234 C   0  0  0  0  0  0  0  0  0  0  0  0
    3.9880   -2.4184   29.1487 C   0  0  0  0  0  0  0  0  0  0  0  0
    4.4039   -2.1733   30.4825 C   0  0  0  0  0  0  0  0  0  0  0  0
    3.6116   -2.4545   31.5805 C   0  0  0  0  0  0  0  0  0  0  0  0
    4.0808   -2.2125   32.8118 F   0  0  0  0  0  0  0  0  0  0  0  0
    2.3597   -3.0146   31.4304 C   0  0  0  0  0  0  0  0  0  0  0  0
    1.8828   -3.2500   30.1333 C   0  0  0  0  0  0  0  0  0  0  0  0
    0.6747   -3.8287   29.6838 C   0  0  0  0  0  0  0  0  0  0  0  0
    0.7062   -3.8025   28.3200 C   0  0  0  0  0  0  0  0  0  0  0  0
    1.8793   -3.2166   27.9168 N   0  0  0  0  0  0  0  0  0  0  0  0
    2.6697   -2.9176   29.0086 C   0  0  0  0  0  0  0  0  0  0  0  0
    3.6726   -1.8828   26.7179 H   0  0  0  0  0  0  0  0  0  0  0  0
    4.8663   -0.6594   25.2342 H   0  0  0  0  0  0  0  0  0  0  0  0
    6.4182   -1.1585   26.0720 H   0  0  0  0  0  0  0  0  0  0  0  0
    4.8615   -2.9314   24.4260 H   0  0  0  0  0  0  0  0  0  0  0  0
    6.6580   -2.7130   24.9599 H   0  0  0  0  0  0  0  0  0  0  0  0
    7.7044   -3.7923   23.9851 H   0  0  0  0  0  0  0  0  0  0  0  0
    7.0219   -4.8357   23.1738 H   0  0  0  0  0  0  0  0  0  0  0  0
    7.8950   -2.7094   21.2044 H   0  0  0  0  0  0  0  0  0  0  0  0
    8.1747   -4.3009   20.7286 H   0  0  0  0  0  0  0  0  0  0  0  0
   11.7388   -5.2318   20.1150 H   0  0  0  0  0  0  0  0  0  0  0  0
   13.8755   -3.4887   22.9118 H   0  0  0  0  0  0  0  0  0  0  0  0
   11.5872   -3.0860   23.7310 H   0  0  0  0  0  0  0  0  0  0  0  0
    5.4003   -1.7765   30.6755 H   0  0  0  0  0  0  0  0  0  0  0  0
    1.7673   -3.2620   32.3053 H   0  0  0  0  0  0  0  0  0  0  0  0
   -0.1290   -4.2136   30.2973 H   0  0  0  0  0  0  0  0  0  0  0  0
   -0.0302   -4.1467   27.6169 H   0  0  0  0  0  0  0  0  0  0  0  0
    2.1203   -3.0502   26.9468 H   0  0  0  0  0  0  0  0  0  0  0  0
  1  2  2  0
  2  3  1  0
  3  4  1  0
  4  5  1  0
  5  6  1  0
  6  7  1  0
  7  8  1  0
  8  9  1  0
  9 10  2  0
 10 11  1  0
 11 12  1  0
  2 13  1  0
 13 14  2  0
 14 15  1  0
 15 16  1  0
 15 17  2  0
 17 18  1  0
 18 19  1  0
 19 20  2  0
 20 21  1  0
 21 22  1  0
 12  8  2  0
 22 13  1  0
 22 18  2  0
  3 23  1  0
  4 24  1  0
  4 25  1  0
  5 26  1  0
  5 27  1  0
  6 28  1  0
  6 29  1  0
  7 30  1  0
  7 31  1  0
  9 32  1  0
 11 33  1  0
 12 34  1  0
 14 35  1  0
 17 36  1  0
 19 37  1  0
 20 38  1  0
 21 39  1  0
M  END
>  <Energy>  (741) 
607.11854865955218

>  <compound_id>  (741) 
24469

>  <target_id>  (741) 
1

>  <reference_id>  (741) 
122

>  <inspiration_ids>  (741) 
[40, 122]

>  <energy_score>  (741) 
582.6509358112821

>  <distance_score>  (741) 
5.985784599850465

>  <path>  (741) 
/opt/xchem-fragalysis-2/maxwin/BulkDock/SCRATCH/511020/C24469-P122/C24469-P122.minimised.mol

>  <scratch_subdir>  (741) 
/opt/xchem-fragalysis-2/maxwin/BulkDock/SCRATCH/511020/C24469-P122

>  <fragmenstein_runtime>  (741) 
10.307054996490479

>  <fragmenstein_outcome>  (741) 
too moved

>  <fragmenstein_mode>  (741) 
expansion

>  <fragmenstein_error>  (741) 


$$$$
C24470-P40
     RDKit          3D

 32 34  0  0  0  0  0  0  0  0999 V2000
    5.1654   -1.9259   23.4117 O   0  0  0  0  0  0  0  0  0  0  0  0
    5.9368   -2.9105   23.5408 C   0  0  0  0  0  0  0  0  0  0  0  0
    6.8329   -3.2707   22.1444 O   0  0  0  0  0  0  0  0  0  0  0  0
    7.9237   -4.1687   20.8745 C   0  0  0  0  0  0  0  0  0  0  0  0
    9.8769   -4.9742   20.7228 C   0  0  0  0  0  0  0  0  0  0  0  0
   11.4238   -4.4084   21.3776 C   0  0  0  0  0  0  0  0  0  0  0  0
   12.6703   -4.5568   20.6727 C   0  0  0  0  0  0  0  0  0  0  0  0
   13.7002   -3.9896   21.2990 N   0  0  0  0  0  0  0  0  0  0  0  0
   13.1460   -3.4901   22.4096 N   0  0  0  0  0  0  0  0  0  0  0  0
   11.8135   -3.7673   22.5349 C   0  0  0  0  0  0  0  0  0  0  0  0
    5.7191   -3.5785   24.9476 C   0  0  0  0  0  0  0  0  0  0  0  0
    5.4365   -2.6956   25.9994 C   0  0  0  0  0  0  0  0  0  0  0  0
    4.8757   -3.3634   27.0371 N   0  0  0  0  0  0  0  0  0  0  0  0
    4.7091   -4.6755   26.6893 C   0  0  0  0  0  0  0  0  0  0  0  0
    3.9867   -5.6689   27.3572 C   0  0  0  0  0  0  0  0  0  0  0  0
    3.9530   -6.9266   26.7679 C   0  0  0  0  0  0  0  0  0  0  0  0
    4.7011   -7.2035   25.6267 C   0  0  0  0  0  0  0  0  0  0  0  0
    5.4343   -6.1952   24.9949 C   0  0  0  0  0  0  0  0  0  0  0  0
    6.1560   -6.4874   23.9071 F   0  0  0  0  0  0  0  0  0  0  0  0
    5.3891   -4.8784   25.4709 C   0  0  0  0  0  0  0  0  0  0  0  0
    7.4665   -4.8764   21.5815 H   0  0  0  0  0  0  0  0  0  0  0  0
    7.2672   -4.4197   20.0169 H   0  0  0  0  0  0  0  0  0  0  0  0
    9.9906   -5.3639   19.7003 H   0  0  0  0  0  0  0  0  0  0  0  0
   10.2411   -5.9728   21.0671 H   0  0  0  0  0  0  0  0  0  0  0  0
   12.8452   -5.0122   19.7082 H   0  0  0  0  0  0  0  0  0  0  0  0
   13.7315   -2.9656   23.0506 H   0  0  0  0  0  0  0  0  0  0  0  0
   11.2860   -3.4181   23.4101 H   0  0  0  0  0  0  0  0  0  0  0  0
    5.5120   -1.6150   26.0200 H   0  0  0  0  0  0  0  0  0  0  0  0
    4.5183   -2.9306   27.8776 H   0  0  0  0  0  0  0  0  0  0  0  0
    3.4451   -5.4563   28.2721 H   0  0  0  0  0  0  0  0  0  0  0  0
    3.3496   -7.7065   27.2079 H   0  0  0  0  0  0  0  0  0  0  0  0
    4.7105   -8.1980   25.1845 H   0  0  0  0  0  0  0  0  0  0  0  0
  1  2  2  0
  2  3  1  0
  3  4  1  0
  4  5  1  0
  5  6  1  0
  6  7  1  0
  7  8  2  0
  8  9  1  0
  9 10  1  0
  2 11  1  0
 11 12  2  0
 12 13  1  0
 13 14  1  0
 14 15  2  0
 15 16  1  0
 16 17  2  0
 17 18  1  0
 18 19  1  0
 18 20  2  0
 10  6  2  0
 20 11  1  0
 20 14  1  0
  4 21  1  0
  4 22  1  0
  5 23  1  0
  5 24  1  0
  7 25  1  0
  9 26  1  0
 10 27  1  0
 12 28  1  0
 13 29  1  0
 15 30  1  0
 16 31  1  0
 17 32  1  0
M  END
>  <Energy>  (742) 
389.93830170909411

>  <compound_id>  (742) 
24470

>  <target_id>  (742) 
1

>  <reference_id>  (742) 
40

>  <inspiration_ids>  (742) 
[40, 122]

>  <energy_score>  (742) 
328.47506049603385

>  <distance_score>  (742) 
6.301668799061623

>  <path>  (742) 
/opt/xchem-fragalysis-2/maxwin/BulkDock/SCRATCH/511020/C24470-P40/C24470-P40.minimised.mol

>  <scratch_subdir>  (742) 
/opt/xchem-fragalysis-2/maxwin/BulkDock/SCRATCH/511020/C24470-P40

>  <fragmenstein_runtime>  (742) 
7.737940549850464

>  <fragmenstein_outcome>  (742) 
too moved

>  <fragmenstein_mode>  (742) 
expansion

>  <fragmenstein_error>  (742) 


$$$$
C24470-P122
     RDKit          3D

 32 34  0  0  0  0  0  0  0  0999 V2000
    3.7868   -2.3820   24.3388 O   0  0  0  0  0  0  0  0  0  0  0  0
    4.9570   -2.2023   24.6531 C   0  0  0  0  0  0  0  0  0  0  0  0
    5.9738   -2.4996   23.6243 O   0  0  0  0  0  0  0  0  0  0  0  0
    7.2324   -3.7695   22.9224 C   0  0  0  0  0  0  0  0  0  0  0  0
    8.5210   -3.4370   21.3106 C   0  0  0  0  0  0  0  0  0  0  0  0
   10.7975   -3.4586   21.3798 C   0  0  0  0  0  0  0  0  0  0  0  0
   11.9447   -4.4995   20.7622 C   0  0  0  0  0  0  0  0  0  0  0  0
   13.1965   -4.4586   21.1979 N   0  0  0  0  0  0  0  0  0  0  0  0
   13.0722   -3.7300   22.2867 N   0  0  0  0  0  0  0  0  0  0  0  0
   11.7686   -3.4951   22.6401 C   0  0  0  0  0  0  0  0  0  0  0  0
    5.2575   -1.6326   26.0500 C   0  0  0  0  0  0  0  0  0  0  0  0
    6.4891   -1.2829   26.5956 C   0  0  0  0  0  0  0  0  0  0  0  0
    6.3239   -0.8493   27.8800 N   0  0  0  0  0  0  0  0  0  0  0  0
    5.0529   -1.1110   28.3166 C   0  0  0  0  0  0  0  0  0  0  0  0
    4.4999   -0.9646   29.6029 C   0  0  0  0  0  0  0  0  0  0  0  0
    3.2007   -1.4212   29.8287 C   0  0  0  0  0  0  0  0  0  0  0  0
    2.4974   -2.0267   28.8031 C   0  0  0  0  0  0  0  0  0  0  0  0
    3.0749   -2.1470   27.5329 C   0  0  0  0  0  0  0  0  0  0  0  0
    2.4112   -2.8887   26.6583 F   0  0  0  0  0  0  0  0  0  0  0  0
    4.3587   -1.6440   27.2253 C   0  0  0  0  0  0  0  0  0  0  0  0
    7.6378   -3.7321   23.9049 H   0  0  0  0  0  0  0  0  0  0  0  0
    7.0134   -4.8312   23.1145 H   0  0  0  0  0  0  0  0  0  0  0  0
    8.0977   -4.4945   21.2292 H   0  0  0  0  0  0  0  0  0  0  0  0
    8.4972   -3.9952   20.2889 H   0  0  0  0  0  0  0  0  0  0  0  0
   11.7638   -5.2680   20.0276 H   0  0  0  0  0  0  0  0  0  0  0  0
   13.8989   -3.5279   22.8361 H   0  0  0  0  0  0  0  0  0  0  0  0
   11.6128   -3.1162   23.6437 H   0  0  0  0  0  0  0  0  0  0  0  0
    7.4829   -1.3213   26.1727 H   0  0  0  0  0  0  0  0  0  0  0  0
    7.0692   -0.5101   28.4706 H   0  0  0  0  0  0  0  0  0  0  0  0
    5.0777   -0.5301   30.4132 H   0  0  0  0  0  0  0  0  0  0  0  0
    2.7548   -1.3291   30.8151 H   0  0  0  0  0  0  0  0  0  0  0  0
    1.5056   -2.4353   28.9674 H   0  0  0  0  0  0  0  0  0  0  0  0
  1  2  2  0
  2  3  1  0
  3  4  1  0
  4  5  1  0
  5  6  1  0
  6  7  1  0
  7  8  2  0
  8  9  1  0
  9 10  1  0
  2 11  1  0
 11 12  2  0
 12 13  1  0
 13 14  1  0
 14 15  2  0
 15 16  1  0
 16 17  2  0
 17 18  1  0
 18 19  1  0
 18 20  2  0
 10  6  2  0
 20 11  1  0
 20 14  1  0
  4 21  1  0
  4 22  1  0
  5 23  1  0
  5 24  1  0
  7 25  1  0
  9 26  1  0
 10 27  1  0
 12 28  1  0
 13 29  1  0
 15 30  1  0
 16 31  1  0
 17 32  1  0
M  END
>  <Energy>  (743) 
573.8703413762745

>  <compound_id>  (743) 
24470

>  <target_id>  (743) 
1

>  <reference_id>  (743) 
122

>  <inspiration_ids>  (743) 
[40, 122]

>  <energy_score>  (743) 
512.4071001632103

>  <distance_score>  (743) 
6.0629367472712286

>  <path>  (743) 
/opt/xchem-fragalysis-2/maxwin/BulkDock/SCRATCH/511020/C24470-P122/C24470-P122.minimised.mol

>  <scratch_subdir>  (743) 
/opt/xchem-fragalysis-2/maxwin/BulkDock/SCRATCH/511020/C24470-P122

>  <fragmenstein_runtime>  (743) 
4.9998297691345215

>  <fragmenstein_outcome>  (743) 
too moved

>  <fragmenstein_mode>  (743) 
expansion

>  <fragmenstein_error>  (743) 


$$$$
C24471-P40
     RDKit          3D

 32 34  0  0  0  0  0  0  0  0999 V2000
    6.6649   -6.6966   23.8650 O   0  0  0  0  0  0  0  0  0  0  0  0
    6.4710   -5.4933   23.7422 C   0  0  0  0  0  0  0  0  0  0  0  0
    7.0293   -4.7558   22.5826 O   0  0  0  0  0  0  0  0  0  0  0  0
    7.9264   -4.3105   20.9366 C   0  0  0  0  0  0  0  0  0  0  0  0
    9.8993   -5.0298   20.7177 C   0  0  0  0  0  0  0  0  0  0  0  0
   11.4288   -4.4498   21.3719 C   0  0  0  0  0  0  0  0  0  0  0  0
   12.6758   -4.5795   20.6634 C   0  0  0  0  0  0  0  0  0  0  0  0
   13.6994   -3.9951   21.2841 N   0  0  0  0  0  0  0  0  0  0  0  0
   13.1432   -3.5060   22.3976 N   0  0  0  0  0  0  0  0  0  0  0  0
   11.8137   -3.7965   22.5245 C   0  0  0  0  0  0  0  0  0  0  0  0
    5.6746   -4.8009   24.8892 C   0  0  0  0  0  0  0  0  0  0  0  0
    5.4944   -3.4546   25.1990 C   0  0  0  0  0  0  0  0  0  0  0  0
    4.7289   -3.2909   26.3141 N   0  0  0  0  0  0  0  0  0  0  0  0
    4.1909   -4.4895   26.6763 C   0  0  0  0  0  0  0  0  0  0  0  0
    3.2278   -4.7528   27.6571 C   0  0  0  0  0  0  0  0  0  0  0  0
    2.7834   -6.0609   27.7566 C   0  0  0  0  0  0  0  0  0  0  0  0
    1.5128   -6.4331   28.8557 Cl  0  0  0  0  0  0  0  0  0  0  0  0
    3.3088   -7.0528   26.9354 C   0  0  0  0  0  0  0  0  0  0  0  0
    4.3131   -6.7802   25.9967 C   0  0  0  0  0  0  0  0  0  0  0  0
    4.7674   -5.4577   25.8394 C   0  0  0  0  0  0  0  0  0  0  0  0
    7.2204   -4.6040   20.1224 H   0  0  0  0  0  0  0  0  0  0  0  0
    7.7214   -3.2858   21.1843 H   0  0  0  0  0  0  0  0  0  0  0  0
   10.0125   -5.3728   19.6829 H   0  0  0  0  0  0  0  0  0  0  0  0
   10.2641   -6.0283   21.0656 H   0  0  0  0  0  0  0  0  0  0  0  0
   12.8548   -5.0320   19.6985 H   0  0  0  0  0  0  0  0  0  0  0  0
   13.7248   -2.9768   23.0383 H   0  0  0  0  0  0  0  0  0  0  0  0
   11.2855   -3.4516   23.4008 H   0  0  0  0  0  0  0  0  0  0  0  0
    5.8471   -2.5591   24.7186 H   0  0  0  0  0  0  0  0  0  0  0  0
    4.5017   -2.3975   26.7303 H   0  0  0  0  0  0  0  0  0  0  0  0
    2.8166   -3.9588   28.2718 H   0  0  0  0  0  0  0  0  0  0  0  0
    2.9180   -8.0604   26.9593 H   0  0  0  0  0  0  0  0  0  0  0  0
    4.6905   -7.5686   25.3444 H   0  0  0  0  0  0  0  0  0  0  0  0
  1  2  2  0
  2  3  1  0
  3  4  1  0
  4  5  1  0
  5  6  1  0
  6  7  1  0
  7  8  2  0
  8  9  1  0
  9 10  1  0
  2 11  1  0
 11 12  2  0
 12 13  1  0
 13 14  1  0
 14 15  2  0
 15 16  1  0
 16 17  1  0
 16 18  2  0
 18 19  1  0
 19 20  2  0
 10  6  2  0
 20 11  1  0
 20 14  1  0
  4 21  1  0
  4 22  1  0
  5 23  1  0
  5 24  1  0
  7 25  1  0
  9 26  1  0
 10 27  1  0
 12 28  1  0
 13 29  1  0
 15 30  1  0
 18 31  1  0
 19 32  1  0
M  END
>  <Energy>  (744) 
278.93010396756176

>  <compound_id>  (744) 
24471

>  <target_id>  (744) 
1

>  <reference_id>  (744) 
40

>  <inspiration_ids>  (744) 
[40, 122]

>  <energy_score>  (744) 
221.67163022414854

>  <distance_score>  (744) 
5.60867275039289

>  <path>  (744) 
/opt/xchem-fragalysis-2/maxwin/BulkDock/SCRATCH/511020/C24471-P40/C24471-P40.minimised.mol

>  <scratch_subdir>  (744) 
/opt/xchem-fragalysis-2/maxwin/BulkDock/SCRATCH/511020/C24471-P40

>  <fragmenstein_runtime>  (744) 
4.835425138473511

>  <fragmenstein_outcome>  (744) 
too moved

>  <fragmenstein_mode>  (744) 
expansion

>  <fragmenstein_error>  (744) 


$$$$
C24471-P122
     RDKit          3D

 32 34  0  0  0  0  0  0  0  0999 V2000
    4.4930   -7.8252   23.2463 O   0  0  0  0  0  0  0  0  0  0  0  0
    4.6568   -6.7991   23.8453 C   0  0  0  0  0  0  0  0  0  0  0  0
    6.0463   -6.0119   23.6609 O   0  0  0  0  0  0  0  0  0  0  0  0
    7.4337   -5.5956   22.5516 C   0  0  0  0  0  0  0  0  0  0  0  0
    8.3008   -4.7356   20.8383 C   0  0  0  0  0  0  0  0  0  0  0  0
   10.3335   -5.3286   20.4335 C   0  0  0  0  0  0  0  0  0  0  0  0
   11.8639   -5.2740   19.5072 C   0  0  0  0  0  0  0  0  0  0  0  0
   13.0906   -5.4568   19.9968 N   0  0  0  0  0  0  0  0  0  0  0  0
   12.8737   -5.1263   21.2236 N   0  0  0  0  0  0  0  0  0  0  0  0
   11.6355   -4.5517   21.2923 C   0  0  0  0  0  0  0  0  0  0  0  0
    3.1076   -6.1148   24.8856 C   0  0  0  0  0  0  0  0  0  0  0  0
    1.8975   -5.6330   24.1842 C   0  0  0  0  0  0  0  0  0  0  0  0
    2.6084   -4.0221   25.0513 N   0  0  0  0  0  0  0  0  0  0  0  0
    2.0560   -3.9469   26.5549 C   0  0  0  0  0  0  0  0  0  0  0  0
    1.5974   -3.0718   27.5360 C   0  0  0  0  0  0  0  0  0  0  0  0
    0.5619   -3.6447   28.2962 C   0  0  0  0  0  0  0  0  0  0  0  0
   -0.1386   -2.7142   29.5719 Cl  0  0  0  0  0  0  0  0  0  0  0  0
   -0.0325   -4.8912   27.9719 C   0  0  0  0  0  0  0  0  0  0  0  0
    0.4422   -5.6927   26.8993 C   0  0  0  0  0  0  0  0  0  0  0  0
    1.8322   -5.3160   26.2661 C   0  0  0  0  0  0  0  0  0  0  0  0
    8.0998   -5.6209   23.3778 H   0  0  0  0  0  0  0  0  0  0  0  0
    7.0673   -6.5307   22.1366 H   0  0  0  0  0  0  0  0  0  0  0  0
    8.1473   -3.7017   21.1418 H   0  0  0  0  0  0  0  0  0  0  0  0
    7.5815   -4.8691   20.0269 H   0  0  0  0  0  0  0  0  0  0  0  0
   11.9239   -4.8459   18.4919 H   0  0  0  0  0  0  0  0  0  0  0  0
   13.6618   -5.0015   21.8520 H   0  0  0  0  0  0  0  0  0  0  0  0
   11.5900   -3.8223   22.0886 H   0  0  0  0  0  0  0  0  0  0  0  0
    1.4501   -5.2877   23.2262 H   0  0  0  0  0  0  0  0  0  0  0  0
    2.5614   -3.1801   24.4778 H   0  0  0  0  0  0  0  0  0  0  0  0
    1.8829   -2.0315   27.5877 H   0  0  0  0  0  0  0  0  0  0  0  0
   -0.8896   -5.2384   28.5341 H   0  0  0  0  0  0  0  0  0  0  0  0
   -0.0275   -6.6391   26.6430 H   0  0  0  0  0  0  0  0  0  0  0  0
  1  2  2  0
  2  3  1  0
  3  4  1  0
  4  5  1  0
  5  6  1  0
  6  7  1  0
  7  8  2  0
  8  9  1  0
  9 10  1  0
  2 11  1  0
 11 12  2  0
 12 13  1  0
 13 14  1  0
 14 15  2  0
 15 16  1  0
 16 17  1  0
 16 18  2  0
 18 19  1  0
 19 20  2  0
 10  6  2  0
 20 11  1  0
 20 14  1  0
  4 21  1  0
  4 22  1  0
  5 23  1  0
  5 24  1  0
  7 25  1  0
  9 26  1  0
 10 27  1  0
 12 28  1  0
 13 29  1  0
 15 30  1  0
 18 31  1  0
 19 32  1  0
M  END
>  <Energy>  (745) 
973.91518226595485

>  <compound_id>  (745) 
24471

>  <target_id>  (745) 
1

>  <reference_id>  (745) 
122

>  <inspiration_ids>  (745) 
[40, 122]

>  <energy_score>  (745) 
916.6567085225495

>  <distance_score>  (745) 
4.29155754856624

>  <path>  (745) 
/opt/xchem-fragalysis-2/maxwin/BulkDock/SCRATCH/511020/C24471-P122/C24471-P122.minimised.mol

>  <scratch_subdir>  (745) 
/opt/xchem-fragalysis-2/maxwin/BulkDock/SCRATCH/511020/C24471-P122

>  <fragmenstein_runtime>  (745) 
8.343879699707031

>  <fragmenstein_outcome>  (745) 
too moved

>  <fragmenstein_mode>  (745) 
expansion

>  <fragmenstein_error>  (745) 


$$$$
C24472-P40
     RDKit          3D

 32 34  0  0  0  0  0  0  0  0999 V2000
    6.9629   -3.0830   21.3255 O   0  0  0  0  0  0  0  0  0  0  0  0
    7.5221   -4.1490   21.6054 C   0  0  0  0  0  0  0  0  0  0  0  0
    8.9624   -4.3672   20.5628 O   0  0  0  0  0  0  0  0  0  0  0  0
   10.6592   -5.1012   20.9051 C   0  0  0  0  0  0  0  0  0  0  0  0
   12.2660   -4.7441   20.4918 C   0  0  0  0  0  0  0  0  0  0  0  0
   12.9357   -4.1110   19.2665 C   0  0  0  0  0  0  0  0  0  0  0  0
   12.6069   -4.0157   17.8841 C   0  0  0  0  0  0  0  0  0  0  0  0
   13.4623   -3.2744   17.1740 N   0  0  0  0  0  0  0  0  0  0  0  0
   14.4219   -2.9905   18.0588 N   0  0  0  0  0  0  0  0  0  0  0  0
   14.1454   -3.4328   19.3169 C   0  0  0  0  0  0  0  0  0  0  0  0
    6.7187   -5.0271   23.1575 C   0  0  0  0  0  0  0  0  0  0  0  0
    5.9770   -4.1714   24.1018 C   0  0  0  0  0  0  0  0  0  0  0  0
    5.2496   -4.7073   25.1086 N   0  0  0  0  0  0  0  0  0  0  0  0
    5.6077   -5.9843   25.3001 C   0  0  0  0  0  0  0  0  0  0  0  0
    5.2273   -6.7337   26.4272 C   0  0  0  0  0  0  0  0  0  0  0  0
    6.1036   -7.6992   26.8572 C   0  0  0  0  0  0  0  0  0  0  0  0
    5.9304   -8.2649   28.0579 F   0  0  0  0  0  0  0  0  0  0  0  0
    7.2532   -7.9434   26.1561 C   0  0  0  0  0  0  0  0  0  0  0  0
    7.5410   -7.2004   24.9883 C   0  0  0  0  0  0  0  0  0  0  0  0
    6.6589   -6.2280   24.3737 C   0  0  0  0  0  0  0  0  0  0  0  0
   10.5592   -6.1683   21.0324 H   0  0  0  0  0  0  0  0  0  0  0  0
   10.8615   -4.6148   21.8553 H   0  0  0  0  0  0  0  0  0  0  0  0
   12.6020   -4.0835   21.3129 H   0  0  0  0  0  0  0  0  0  0  0  0
   12.8111   -5.6741   20.6974 H   0  0  0  0  0  0  0  0  0  0  0  0
   11.7551   -4.4211   17.3588 H   0  0  0  0  0  0  0  0  0  0  0  0
   15.2345   -2.4752   17.7390 H   0  0  0  0  0  0  0  0  0  0  0  0
   14.8219   -3.2368   20.1362 H   0  0  0  0  0  0  0  0  0  0  0  0
    5.8574   -3.0871   24.0358 H   0  0  0  0  0  0  0  0  0  0  0  0
    4.6707   -4.1658   25.7326 H   0  0  0  0  0  0  0  0  0  0  0  0
    4.4096   -6.4251   27.0668 H   0  0  0  0  0  0  0  0  0  0  0  0
    7.9906   -8.6278   26.5639 H   0  0  0  0  0  0  0  0  0  0  0  0
    8.5928   -7.2563   24.7486 H   0  0  0  0  0  0  0  0  0  0  0  0
  1  2  2  0
  2  3  1  0
  3  4  1  0
  4  5  1  0
  5  6  1  0
  6  7  1  0
  7  8  2  0
  8  9  1  0
  9 10  1  0
  2 11  1  0
 11 12  2  0
 12 13  1  0
 13 14  1  0
 14 15  2  0
 15 16  1  0
 16 17  1  0
 16 18  2  0
 18 19  1  0
 19 20  2  0
 10  6  2  0
 20 11  1  0
 20 14  1  0
  4 21  1  0
  4 22  1  0
  5 23  1  0
  5 24  1  0
  7 25  1  0
  9 26  1  0
 10 27  1  0
 12 28  1  0
 13 29  1  0
 15 30  1  0
 18 31  1  0
 19 32  1  0
M  END
>  <Energy>  (746) 
377.34524251991212

>  <compound_id>  (746) 
24472

>  <target_id>  (746) 
1

>  <reference_id>  (746) 
40

>  <inspiration_ids>  (746) 
[40, 122]

>  <energy_score>  (746) 
322.8526795835768

>  <distance_score>  (746) 
6.4117608647221065

>  <path>  (746) 
/opt/xchem-fragalysis-2/maxwin/BulkDock/SCRATCH/511020/C24472-P40/C24472-P40.minimised.mol

>  <scratch_subdir>  (746) 
/opt/xchem-fragalysis-2/maxwin/BulkDock/SCRATCH/511020/C24472-P40

>  <fragmenstein_runtime>  (746) 
5.79055380821228

>  <fragmenstein_outcome>  (746) 
too moved

>  <fragmenstein_mode>  (746) 
expansion

>  <fragmenstein_error>  (746) 


$$$$
C24472-P122
     RDKit          3D

 32 34  0  0  0  0  0  0  0  0999 V2000
    5.0161   -1.9618   23.2871 O   0  0  0  0  0  0  0  0  0  0  0  0
    5.5626   -2.3416   24.3271 C   0  0  0  0  0  0  0  0  0  0  0  0
    6.7220   -3.4850   24.0833 O   0  0  0  0  0  0  0  0  0  0  0  0
    7.4864   -4.3031   22.8162 C   0  0  0  0  0  0  0  0  0  0  0  0
    8.5245   -3.5370   21.2487 C   0  0  0  0  0  0  0  0  0  0  0  0
   10.7964   -3.4770   21.3125 C   0  0  0  0  0  0  0  0  0  0  0  0
   11.9550   -4.5354   20.7127 C   0  0  0  0  0  0  0  0  0  0  0  0
   13.2110   -4.4718   21.1312 N   0  0  0  0  0  0  0  0  0  0  0  0
   13.0821   -3.7278   22.2090 N   0  0  0  0  0  0  0  0  0  0  0  0
   11.7739   -3.5229   22.5696 C   0  0  0  0  0  0  0  0  0  0  0  0
    5.0026   -1.7897   25.6686 C   0  0  0  0  0  0  0  0  0  0  0  0
    3.6753   -1.4014   25.6890 C   0  0  0  0  0  0  0  0  0  0  0  0
    3.2164   -1.2239   26.9503 N   0  0  0  0  0  0  0  0  0  0  0  0
    4.2277   -1.4560   27.8379 C   0  0  0  0  0  0  0  0  0  0  0  0
    4.1796   -1.4894   29.2372 C   0  0  0  0  0  0  0  0  0  0  0  0
    5.3570   -1.7986   29.9033 C   0  0  0  0  0  0  0  0  0  0  0  0
    5.3543   -1.8649   31.2419 F   0  0  0  0  0  0  0  0  0  0  0  0
    6.5372   -2.0361   29.2159 C   0  0  0  0  0  0  0  0  0  0  0  0
    6.5691   -1.9827   27.8138 C   0  0  0  0  0  0  0  0  0  0  0  0
    5.3876   -1.7101   27.0814 C   0  0  0  0  0  0  0  0  0  0  0  0
    8.0812   -4.9642   23.4270 H   0  0  0  0  0  0  0  0  0  0  0  0
    7.1011   -5.3273   22.7079 H   0  0  0  0  0  0  0  0  0  0  0  0
    8.2945   -4.3147   20.4642 H   0  0  0  0  0  0  0  0  0  0  0  0
    7.9000   -2.7685   21.2389 H   0  0  0  0  0  0  0  0  0  0  0  0
   11.7654   -5.3082   19.9878 H   0  0  0  0  0  0  0  0  0  0  0  0
   13.9069   -3.5071   22.7543 H   0  0  0  0  0  0  0  0  0  0  0  0
   11.6198   -3.1592   23.5792 H   0  0  0  0  0  0  0  0  0  0  0  0
    2.9948   -1.3552   24.8659 H   0  0  0  0  0  0  0  0  0  0  0  0
    2.2521   -1.0398   27.1885 H   0  0  0  0  0  0  0  0  0  0  0  0
    3.2649   -1.3029   29.7866 H   0  0  0  0  0  0  0  0  0  0  0  0
    7.4408   -2.2717   29.7687 H   0  0  0  0  0  0  0  0  0  0  0  0
    7.4862   -2.2158   27.2787 H   0  0  0  0  0  0  0  0  0  0  0  0
  1  2  2  0
  2  3  1  0
  3  4  1  0
  4  5  1  0
  5  6  1  0
  6  7  1  0
  7  8  2  0
  8  9  1  0
  9 10  1  0
  2 11  1  0
 11 12  2  0
 12 13  1  0
 13 14  1  0
 14 15  2  0
 15 16  1  0
 16 17  1  0
 16 18  2  0
 18 19  1  0
 19 20  2  0
 10  6  2  0
 20 11  1  0
 20 14  1  0
  4 21  1  0
  4 22  1  0
  5 23  1  0
  5 24  1  0
  7 25  1  0
  9 26  1  0
 10 27  1  0
 12 28  1  0
 13 29  1  0
 15 30  1  0
 18 31  1  0
 19 32  1  0
M  END
>  <Energy>  (747) 
482.364325418455

>  <compound_id>  (747) 
24472

>  <target_id>  (747) 
1

>  <reference_id>  (747) 
122

>  <inspiration_ids>  (747) 
[40, 122]

>  <energy_score>  (747) 
427.87176248211256

>  <distance_score>  (747) 
6.519303348301129

>  <path>  (747) 
/opt/xchem-fragalysis-2/maxwin/BulkDock/SCRATCH/511020/C24472-P122/C24472-P122.minimised.mol

>  <scratch_subdir>  (747) 
/opt/xchem-fragalysis-2/maxwin/BulkDock/SCRATCH/511020/C24472-P122

>  <fragmenstein_runtime>  (747) 
7.641180515289307

>  <fragmenstein_outcome>  (747) 
too moved

>  <fragmenstein_mode>  (747) 
expansion

>  <fragmenstein_error>  (747) 


$$$$
C24474-P40
     RDKit          3D

 36 38  0  0  0  0  0  0  0  0999 V2000
    6.8553   -5.8414   22.8665 O   0  0  0  0  0  0  0  0  0  0  0  0
    7.1243   -4.7034   22.3907 C   0  0  0  0  0  0  0  0  0  0  0  0
    6.2023   -3.4815   23.2151 C   0  0  0  0  0  0  0  0  0  0  0  0
    5.5811   -3.8144   24.6263 N   0  0  0  0  0  0  0  0  0  0  0  0
    4.9504   -2.9696   25.5980 C   0  0  0  0  0  0  0  0  0  0  0  0
    4.6624   -1.8070   25.5538 O   0  0  0  0  0  0  0  0  0  0  0  0
    4.4509   -3.6040   26.8611 C   0  0  0  0  0  0  0  0  0  0  0  0
    4.2696   -2.7512   27.9834 C   0  0  0  0  0  0  0  0  0  0  0  0
    3.5980   -3.1512   29.1351 C   0  0  0  0  0  0  0  0  0  0  0  0
    3.0564   -4.4240   29.2143 C   0  0  0  0  0  0  0  0  0  0  0  0
    3.2496   -5.2732   28.1199 C   0  0  0  0  0  0  0  0  0  0  0  0
    2.7928   -6.5520   27.9468 N   0  0  0  0  0  0  0  0  0  0  0  0
    3.2388   -7.0645   26.7705 C   0  0  0  0  0  0  0  0  0  0  0  0
    3.9229   -6.0719   26.1185 C   0  0  0  0  0  0  0  0  0  0  0  0
    3.9490   -4.9200   26.9561 C   0  0  0  0  0  0  0  0  0  0  0  0
    8.1987   -4.2625   20.9447 O   0  0  0  0  0  0  0  0  0  0  0  0
    9.9963   -5.0588   20.7228 C   0  0  0  0  0  0  0  0  0  0  0  0
   11.4995   -4.5222   21.3190 C   0  0  0  0  0  0  0  0  0  0  0  0
   11.9258   -3.8344   22.4804 C   0  0  0  0  0  0  0  0  0  0  0  0
   13.2470   -3.6335   22.5175 N   0  0  0  0  0  0  0  0  0  0  0  0
   13.6854   -4.1439   21.3661 N   0  0  0  0  0  0  0  0  0  0  0  0
   12.6999   -4.7226   20.6364 C   0  0  0  0  0  0  0  0  0  0  0  0
    6.3443   -2.5141   23.6131 H   0  0  0  0  0  0  0  0  0  0  0  0
    5.6909   -2.9430   22.3995 H   0  0  0  0  0  0  0  0  0  0  0  0
    5.7437   -4.7232   25.0360 H   0  0  0  0  0  0  0  0  0  0  0  0
    4.6320   -1.7234   27.9286 H   0  0  0  0  0  0  0  0  0  0  0  0
    3.4728   -2.4481   29.9550 H   0  0  0  0  0  0  0  0  0  0  0  0
    2.5049   -4.7351   30.0950 H   0  0  0  0  0  0  0  0  0  0  0  0
    2.2084   -7.0186   28.6190 H   0  0  0  0  0  0  0  0  0  0  0  0
    3.0269   -8.0757   26.4509 H   0  0  0  0  0  0  0  0  0  0  0  0
    4.3685   -6.2060   25.1404 H   0  0  0  0  0  0  0  0  0  0  0  0
   10.2478   -6.0723   21.0945 H   0  0  0  0  0  0  0  0  0  0  0  0
    9.9947   -5.3854   19.6837 H   0  0  0  0  0  0  0  0  0  0  0  0
   11.3499   -3.4606   23.3166 H   0  0  0  0  0  0  0  0  0  0  0  0
   14.6748   -4.0774   21.1511 H   0  0  0  0  0  0  0  0  0  0  0  0
   12.9248   -5.1639   19.6793 H   0  0  0  0  0  0  0  0  0  0  0  0
  1  2  2  0
  2  3  1  0
  3  4  1  0
  4  5  1  0
  5  6  2  0
  5  7  1  0
  7  8  2  0
  8  9  1  0
  9 10  2  0
 10 11  1  0
 11 12  1  0
 12 13  1  0
 13 14  2  0
 14 15  1  0
  2 16  1  0
 16 17  1  0
 17 18  1  0
 18 19  1  0
 19 20  2  0
 20 21  1  0
 21 22  1  0
 15  7  1  0
 22 18  2  0
 15 11  2  0
  3 23  1  0
  3 24  1  0
  4 25  1  0
  8 26  1  0
  9 27  1  0
 10 28  1  0
 12 29  1  0
 13 30  1  0
 14 31  1  0
 17 32  1  0
 17 33  1  0
 19 34  1  0
 21 35  1  0
 22 36  1  0
M  END
>  <Energy>  (748) 
317.26831888266304

>  <compound_id>  (748) 
24474

>  <target_id>  (748) 
1

>  <reference_id>  (748) 
40

>  <inspiration_ids>  (748) 
[40, 122]

>  <energy_score>  (748) 
243.34944926828064

>  <distance_score>  (748) 
5.3844301665697

>  <path>  (748) 
/opt/xchem-fragalysis-2/maxwin/BulkDock/SCRATCH/511020/C24474-P40/C24474-P40.minimised.mol

>  <scratch_subdir>  (748) 
/opt/xchem-fragalysis-2/maxwin/BulkDock/SCRATCH/511020/C24474-P40

>  <fragmenstein_runtime>  (748) 
6.333325624465942

>  <fragmenstein_outcome>  (748) 
too moved

>  <fragmenstein_mode>  (748) 
expansion

>  <fragmenstein_error>  (748) 


$$$$
C24474-P122
     RDKit          3D

 36 38  0  0  0  0  0  0  0  0999 V2000
    5.4710   -3.0728   20.5458 O   0  0  0  0  0  0  0  0  0  0  0  0
    5.9155   -2.1185   21.1976 C   0  0  0  0  0  0  0  0  0  0  0  0
    5.2126   -1.8689   22.9405 C   0  0  0  0  0  0  0  0  0  0  0  0
    4.6034   -1.6518   24.4520 N   0  0  0  0  0  0  0  0  0  0  0  0
    5.2736   -1.5297   25.7626 C   0  0  0  0  0  0  0  0  0  0  0  0
    6.4441   -1.4788   26.0453 O   0  0  0  0  0  0  0  0  0  0  0  0
    4.2897   -1.5099   26.9243 C   0  0  0  0  0  0  0  0  0  0  0  0
    3.1014   -0.7779   26.8226 C   0  0  0  0  0  0  0  0  0  0  0  0
    2.0953   -0.8440   27.7896 C   0  0  0  0  0  0  0  0  0  0  0  0
    2.2500   -1.6276   28.9277 C   0  0  0  0  0  0  0  0  0  0  0  0
    3.4785   -2.2701   29.0923 C   0  0  0  0  0  0  0  0  0  0  0  0
    3.9161   -3.0484   30.1401 N   0  0  0  0  0  0  0  0  0  0  0  0
    5.2114   -3.4316   29.9366 C   0  0  0  0  0  0  0  0  0  0  0  0
    5.6092   -2.9158   28.7247 C   0  0  0  0  0  0  0  0  0  0  0  0
    4.5138   -2.2019   28.1466 C   0  0  0  0  0  0  0  0  0  0  0  0
    7.0519   -1.0083   20.4105 O   0  0  0  0  0  0  0  0  0  0  0  0
    6.8334   -0.3235   18.7481 C   0  0  0  0  0  0  0  0  0  0  0  0
    7.7858    0.3826   17.7341 C   0  0  0  0  0  0  0  0  0  0  0  0
    8.0362    1.7800   17.6162 C   0  0  0  0  0  0  0  0  0  0  0  0
    8.8426    2.0993   16.6011 N   0  0  0  0  0  0  0  0  0  0  0  0
    9.0315    0.9408   15.9638 N   0  0  0  0  0  0  0  0  0  0  0  0
    8.3480   -0.0863   16.5456 C   0  0  0  0  0  0  0  0  0  0  0  0
    4.7767   -0.9997   22.4388 H   0  0  0  0  0  0  0  0  0  0  0  0
    4.3269   -2.4796   22.9788 H   0  0  0  0  0  0  0  0  0  0  0  0
    3.6015   -1.7486   24.5971 H   0  0  0  0  0  0  0  0  0  0  0  0
    2.9892   -0.1299   25.9612 H   0  0  0  0  0  0  0  0  0  0  0  0
    1.1771   -0.2809   27.6457 H   0  0  0  0  0  0  0  0  0  0  0  0
    1.4653   -1.6913   29.6737 H   0  0  0  0  0  0  0  0  0  0  0  0
    3.3669   -3.2575   30.9627 H   0  0  0  0  0  0  0  0  0  0  0  0
    5.7442   -4.0183   30.6710 H   0  0  0  0  0  0  0  0  0  0  0  0
    6.5873   -3.0314   28.2726 H   0  0  0  0  0  0  0  0  0  0  0  0
    6.2166   -1.0239   18.1650 H   0  0  0  0  0  0  0  0  0  0  0  0
    6.0212    0.3608   18.7648 H   0  0  0  0  0  0  0  0  0  0  0  0
    7.6836    2.5758   18.2618 H   0  0  0  0  0  0  0  0  0  0  0  0
    9.5618    0.9303   15.0965 H   0  0  0  0  0  0  0  0  0  0  0  0
    8.3125   -1.0331   16.0224 H   0  0  0  0  0  0  0  0  0  0  0  0
  1  2  2  0
  2  3  1  0
  3  4  1  0
  4  5  1  0
  5  6  2  0
  5  7  1  0
  7  8  2  0
  8  9  1  0
  9 10  2  0
 10 11  1  0
 11 12  1  0
 12 13  1  0
 13 14  2  0
 14 15  1  0
  2 16  1  0
 16 17  1  0
 17 18  1  0
 18 19  1  0
 19 20  2  0
 20 21  1  0
 21 22  1  0
 15  7  1  0
 22 18  2  0
 15 11  2  0
  3 23  1  0
  3 24  1  0
  4 25  1  0
  8 26  1  0
  9 27  1  0
 10 28  1  0
 12 29  1  0
 13 30  1  0
 14 31  1  0
 17 32  1  0
 17 33  1  0
 19 34  1  0
 21 35  1  0
 22 36  1  0
M  END
>  <Energy>  (749) 
296.45553945786071

>  <compound_id>  (749) 
24474

>  <target_id>  (749) 
1

>  <reference_id>  (749) 
122

>  <inspiration_ids>  (749) 
[40, 122]

>  <energy_score>  (749) 
222.53666984347876

>  <distance_score>  (749) 
5.892526670321047

>  <path>  (749) 
/opt/xchem-fragalysis-2/maxwin/BulkDock/SCRATCH/511020/C24474-P122/C24474-P122.minimised.mol

>  <scratch_subdir>  (749) 
/opt/xchem-fragalysis-2/maxwin/BulkDock/SCRATCH/511020/C24474-P122

>  <fragmenstein_runtime>  (749) 
7.421609878540039

>  <fragmenstein_outcome>  (749) 
too moved

>  <fragmenstein_mode>  (749) 
expansion

>  <fragmenstein_error>  (749) 


$$$$
C46191-P40
     RDKit          3D

 43 46  0  0  0  0  0  0  0  0999 V2000
   10.6496   -6.8922   21.4458 O   0  0  0  0  0  0  0  0  0  0  0  0
   10.8011   -5.7343   21.0879 C   0  0  0  0  0  0  0  0  0  0  0  0
    9.7294   -4.5608   20.8569 N   0  0  0  0  0  0  0  0  0  0  0  0
    7.7445   -4.4562   21.1880 C   0  0  0  0  0  0  0  0  0  0  0  0
    6.8476   -5.1484   22.8783 C   0  0  0  0  0  0  0  0  0  0  0  0
    6.5594   -5.4877   24.3855 N   0  0  0  0  0  0  0  0  0  0  0  0
    6.7221   -6.7811   24.8794 C   0  0  0  0  0  0  0  0  0  0  0  0
    5.9657   -7.0028   25.9982 C   0  0  0  0  0  0  0  0  0  0  0  0
    5.2980   -5.8093   26.3023 C   0  0  0  0  0  0  0  0  0  0  0  0
    4.3883   -5.4766   27.3360 C   0  0  0  0  0  0  0  0  0  0  0  0
    3.9092   -4.1765   27.4563 C   0  0  0  0  0  0  0  0  0  0  0  0
    4.3435   -3.2108   26.5627 C   0  0  0  0  0  0  0  0  0  0  0  0
    5.2261   -3.5269   25.5130 C   0  0  0  0  0  0  0  0  0  0  0  0
    5.7022   -4.8496   25.3498 C   0  0  0  0  0  0  0  0  0  0  0  0
   12.1869   -5.1232   20.8827 C   0  0  0  0  0  0  0  0  0  0  0  0
   12.8258   -5.1129   19.7033 N   0  0  0  0  0  0  0  0  0  0  0  0
   13.8915   -4.3351   19.8411 N   0  0  0  0  0  0  0  0  0  0  0  0
   13.9461   -3.7558   21.0626 C   0  0  0  0  0  0  0  0  0  0  0  0
   12.8970   -4.2807   21.7902 C   0  0  0  0  0  0  0  0  0  0  0  0
   12.6423   -3.9022   23.2043 C   0  0  0  0  0  0  0  0  0  0  0  0
   13.8777   -3.2042   23.8141 C   0  0  0  0  0  0  0  0  0  0  0  0
   14.5177   -2.1716   22.8616 C   0  0  0  0  0  0  0  0  0  0  0  0
   14.9650   -2.7890   21.5215 C   0  0  0  0  0  0  0  0  0  0  0  0
   10.2206   -3.6924   20.6397 H   0  0  0  0  0  0  0  0  0  0  0  0
    7.5234   -3.3833   21.2930 H   0  0  0  0  0  0  0  0  0  0  0  0
    7.2274   -4.6140   20.1962 H   0  0  0  0  0  0  0  0  0  0  0  0
    6.3639   -4.1929   23.0555 H   0  0  0  0  0  0  0  0  0  0  0  0
    6.4636   -6.1157   22.5410 H   0  0  0  0  0  0  0  0  0  0  0  0
    7.3085   -7.5045   24.3560 H   0  0  0  0  0  0  0  0  0  0  0  0
    5.9011   -7.9460   26.5210 H   0  0  0  0  0  0  0  0  0  0  0  0
    4.0962   -6.2354   28.0539 H   0  0  0  0  0  0  0  0  0  0  0  0
    3.2343   -3.9093   28.2634 H   0  0  0  0  0  0  0  0  0  0  0  0
    4.0097   -2.1812   26.6758 H   0  0  0  0  0  0  0  0  0  0  0  0
    5.5522   -2.7322   24.8504 H   0  0  0  0  0  0  0  0  0  0  0  0
   14.5223   -4.2489   19.0500 H   0  0  0  0  0  0  0  0  0  0  0  0
   11.7805   -3.2303   23.2523 H   0  0  0  0  0  0  0  0  0  0  0  0
   12.3981   -4.7888   23.7995 H   0  0  0  0  0  0  0  0  0  0  0  0
   14.6317   -3.9617   24.0649 H   0  0  0  0  0  0  0  0  0  0  0  0
   13.5922   -2.7171   24.7534 H   0  0  0  0  0  0  0  0  0  0  0  0
   15.3785   -1.6995   23.3489 H   0  0  0  0  0  0  0  0  0  0  0  0
   13.7925   -1.3734   22.6660 H   0  0  0  0  0  0  0  0  0  0  0  0
   15.9188   -3.3108   21.6631 H   0  0  0  0  0  0  0  0  0  0  0  0
   15.1240   -1.9973   20.7817 H   0  0  0  0  0  0  0  0  0  0  0  0
  1  2  2  0
  2  3  1  0
  3  4  1  0
  4  5  1  0
  5  6  1  0
  6  7  1  0
  7  8  2  0
  8  9  1  0
  9 10  2  0
 10 11  1  0
 11 12  2  0
 12 13  1  0
 13 14  2  0
  2 15  1  0
 15 16  2  0
 16 17  1  0
 17 18  1  0
 18 19  2  0
 19 20  1  0
 20 21  1  0
 21 22  1  0
 22 23  1  0
 14  6  1  0
 19 15  1  0
 14  9  1  0
 23 18  1  0
  3 24  1  0
  4 25  1  0
  4 26  1  0
  5 27  1  0
  5 28  1  0
  7 29  1  0
  8 30  1  0
 10 31  1  0
 11 32  1  0
 12 33  1  0
 13 34  1  0
 17 35  1  0
 20 36  1  0
 20 37  1  0
 21 38  1  0
 21 39  1  0
 22 40  1  0
 22 41  1  0
 23 42  1  0
 23 43  1  0
M  END
>  <Energy>  (750) 
304.74124694458021

>  <compound_id>  (750) 
46191

>  <target_id>  (750) 
1

>  <reference_id>  (750) 
40

>  <inspiration_ids>  (750) 
[40, 122]

>  <energy_score>  (750) 
219.92574099683293

>  <distance_score>  (750) 
5.878856442679739

>  <path>  (750) 
/opt/xchem-fragalysis-2/maxwin/BulkDock/SCRATCH/511020/C46191-P40/C46191-P40.minimised.mol

>  <scratch_subdir>  (750) 
/opt/xchem-fragalysis-2/maxwin/BulkDock/SCRATCH/511020/C46191-P40

>  <fragmenstein_runtime>  (750) 
7.823590517044067

>  <fragmenstein_outcome>  (750) 
too moved

>  <fragmenstein_mode>  (750) 
expansion

>  <fragmenstein_error>  (750) 


$$$$
C46191-P122
     RDKit          3D

 43 46  0  0  0  0  0  0  0  0999 V2000
   11.5500   -3.6526   22.1902 O   0  0  0  0  0  0  0  0  0  0  0  0
   11.1238   -3.6515   21.0341 C   0  0  0  0  0  0  0  0  0  0  0  0
    9.1515   -3.5751   20.5986 N   0  0  0  0  0  0  0  0  0  0  0  0
    7.7590   -3.6372   21.6546 C   0  0  0  0  0  0  0  0  0  0  0  0
    7.0326   -3.6452   23.5088 C   0  0  0  0  0  0  0  0  0  0  0  0
    5.8999   -2.4483   24.4750 N   0  0  0  0  0  0  0  0  0  0  0  0
    4.5156   -2.1794   24.4172 C   0  0  0  0  0  0  0  0  0  0  0  0
    4.0539   -1.5734   25.5642 C   0  0  0  0  0  0  0  0  0  0  0  0
    5.1213   -1.3553   26.4479 C   0  0  0  0  0  0  0  0  0  0  0  0
    5.1632   -0.8986   27.7802 C   0  0  0  0  0  0  0  0  0  0  0  0
    6.3760   -0.8907   28.4651 C   0  0  0  0  0  0  0  0  0  0  0  0
    7.5428   -1.3074   27.8295 C   0  0  0  0  0  0  0  0  0  0  0  0
    7.5414   -1.7480   26.4970 C   0  0  0  0  0  0  0  0  0  0  0  0
    6.3082   -1.7646   25.8012 C   0  0  0  0  0  0  0  0  0  0  0  0
   12.5024   -3.8109   19.8992 C   0  0  0  0  0  0  0  0  0  0  0  0
   12.5485   -4.2742   18.6130 N   0  0  0  0  0  0  0  0  0  0  0  0
   13.7932   -4.1207   18.1771 N   0  0  0  0  0  0  0  0  0  0  0  0
   14.6121   -3.6019   19.1163 C   0  0  0  0  0  0  0  0  0  0  0  0
   13.8577   -3.4552   20.2636 C   0  0  0  0  0  0  0  0  0  0  0  0
   14.4584   -2.9500   21.5315 C   0  0  0  0  0  0  0  0  0  0  0  0
   15.9992   -3.0540   21.4853 C   0  0  0  0  0  0  0  0  0  0  0  0
   16.5744   -2.5276   20.1549 C   0  0  0  0  0  0  0  0  0  0  0  0
   16.0526   -3.3164   18.9385 C   0  0  0  0  0  0  0  0  0  0  0  0
    9.0260   -3.6747   19.6772 H   0  0  0  0  0  0  0  0  0  0  0  0
    6.9098   -3.1959   21.1128 H   0  0  0  0  0  0  0  0  0  0  0  0
    7.8530   -4.7300   21.6926 H   0  0  0  0  0  0  0  0  0  0  0  0
    6.3496   -3.1892   22.8429 H   0  0  0  0  0  0  0  0  0  0  0  0
    6.6577   -4.6237   23.7175 H   0  0  0  0  0  0  0  0  0  0  0  0
    3.8923   -2.4430   23.5866 H   0  0  0  0  0  0  0  0  0  0  0  0
    3.0174   -1.3441   25.7517 H   0  0  0  0  0  0  0  0  0  0  0  0
    4.2483   -0.5944   28.2775 H   0  0  0  0  0  0  0  0  0  0  0  0
    6.4095   -0.5607   29.4989 H   0  0  0  0  0  0  0  0  0  0  0  0
    8.4802   -1.3102   28.3805 H   0  0  0  0  0  0  0  0  0  0  0  0
    8.4461   -2.1355   26.0436 H   0  0  0  0  0  0  0  0  0  0  0  0
   14.0087   -4.4237   17.2305 H   0  0  0  0  0  0  0  0  0  0  0  0
   14.1945   -1.8961   21.6644 H   0  0  0  0  0  0  0  0  0  0  0  0
   14.0878   -3.5098   22.3953 H   0  0  0  0  0  0  0  0  0  0  0  0
   16.3001   -4.1017   21.6145 H   0  0  0  0  0  0  0  0  0  0  0  0
   16.4261   -2.4915   22.3233 H   0  0  0  0  0  0  0  0  0  0  0  0
   17.6692   -2.5713   20.1758 H   0  0  0  0  0  0  0  0  0  0  0  0
   16.2998   -1.4702   20.0466 H   0  0  0  0  0  0  0  0  0  0  0  0
   16.5995   -4.2635   18.8586 H   0  0  0  0  0  0  0  0  0  0  0  0
   16.2346   -2.7483   18.0200 H   0  0  0  0  0  0  0  0  0  0  0  0
  1  2  2  0
  2  3  1  0
  3  4  1  0
  4  5  1  0
  5  6  1  0
  6  7  1  0
  7  8  2  0
  8  9  1  0
  9 10  2  0
 10 11  1  0
 11 12  2  0
 12 13  1  0
 13 14  2  0
  2 15  1  0
 15 16  2  0
 16 17  1  0
 17 18  1  0
 18 19  2  0
 19 20  1  0
 20 21  1  0
 21 22  1  0
 22 23  1  0
 14  6  1  0
 19 15  1  0
 14  9  1  0
 23 18  1  0
  3 24  1  0
  4 25  1  0
  4 26  1  0
  5 27  1  0
  5 28  1  0
  7 29  1  0
  8 30  1  0
 10 31  1  0
 11 32  1  0
 12 33  1  0
 13 34  1  0
 17 35  1  0
 20 36  1  0
 20 37  1  0
 21 38  1  0
 21 39  1  0
 22 40  1  0
 22 41  1  0
 23 42  1  0
 23 43  1  0
M  END
>  <Energy>  (751) 
467.00645524045945

>  <compound_id>  (751) 
46191

>  <target_id>  (751) 
1

>  <reference_id>  (751) 
122

>  <inspiration_ids>  (751) 
[40, 122]

>  <energy_score>  (751) 
382.19094929271387

>  <distance_score>  (751) 
6.618758030016055

>  <path>  (751) 
/opt/xchem-fragalysis-2/maxwin/BulkDock/SCRATCH/511020/C46191-P122/C46191-P122.minimised.mol

>  <scratch_subdir>  (751) 
/opt/xchem-fragalysis-2/maxwin/BulkDock/SCRATCH/511020/C46191-P122

>  <fragmenstein_runtime>  (751) 
8.967711687088013

>  <fragmenstein_outcome>  (751) 
too moved

>  <fragmenstein_mode>  (751) 
expansion

>  <fragmenstein_error>  (751) 


$$$$
C46192-P40
     RDKit          3D

 40 43  0  0  0  0  0  0  0  0999 V2000
    6.8994   -4.8841   19.6158 O   0  0  0  0  0  0  0  0  0  0  0  0
    7.6676   -4.3574   20.4034 C   0  0  0  0  0  0  0  0  0  0  0  0
    7.4303   -3.5086   21.4815 N   0  0  0  0  0  0  0  0  0  0  0  0
    5.9827   -2.9822   22.2371 C   0  0  0  0  0  0  0  0  0  0  0  0
    5.5303   -2.4918   24.0704 C   0  0  0  0  0  0  0  0  0  0  0  0
    5.0824   -3.5111   25.1376 N   0  0  0  0  0  0  0  0  0  0  0  0
    5.4586   -4.8374   25.2173 C   0  0  0  0  0  0  0  0  0  0  0  0
    4.7215   -5.4623   26.1954 C   0  0  0  0  0  0  0  0  0  0  0  0
    3.9902   -4.4648   26.8782 C   0  0  0  0  0  0  0  0  0  0  0  0
    3.1224   -4.4998   27.9919 C   0  0  0  0  0  0  0  0  0  0  0  0
    2.6154   -3.3065   28.5071 C   0  0  0  0  0  0  0  0  0  0  0  0
    2.9830   -2.0912   27.9377 C   0  0  0  0  0  0  0  0  0  0  0  0
    3.8365   -2.0318   26.8236 C   0  0  0  0  0  0  0  0  0  0  0  0
    4.3049   -3.2367   26.2717 C   0  0  0  0  0  0  0  0  0  0  0  0
    9.5966   -4.7597   20.4673 C   0  0  0  0  0  0  0  0  0  0  0  0
   10.2987   -5.5257   19.6497 N   0  0  0  0  0  0  0  0  0  0  0  0
   11.7550   -5.2377   19.8399 N   0  0  0  0  0  0  0  0  0  0  0  0
   12.1649   -5.0865   21.0782 C   0  0  0  0  0  0  0  0  0  0  0  0
   11.0529   -4.4812   21.5705 C   0  0  0  0  0  0  0  0  0  0  0  0
   11.5620   -3.7666   22.8392 C   0  0  0  0  0  0  0  0  0  0  0  0
   13.0760   -3.5477   22.5342 C   0  0  0  0  0  0  0  0  0  0  0  0
   13.4741   -4.7527   21.6511 C   0  0  0  0  0  0  0  0  0  0  0  0
    8.2057   -3.2353   21.7974 H   0  0  0  0  0  0  0  0  0  0  0  0
    6.2436   -3.8636   22.8592 H   0  0  0  0  0  0  0  0  0  0  0  0
    5.3283   -2.7604   21.4205 H   0  0  0  0  0  0  0  0  0  0  0  0
    6.2719   -2.0247   24.7115 H   0  0  0  0  0  0  0  0  0  0  0  0
    4.6803   -1.8002   23.9679 H   0  0  0  0  0  0  0  0  0  0  0  0
    6.1690   -5.2619   24.5213 H   0  0  0  0  0  0  0  0  0  0  0  0
    4.7599   -6.5204   26.4161 H   0  0  0  0  0  0  0  0  0  0  0  0
    2.8778   -5.4459   28.4616 H   0  0  0  0  0  0  0  0  0  0  0  0
    1.9508   -3.3199   29.3663 H   0  0  0  0  0  0  0  0  0  0  0  0
    2.5926   -1.1638   28.3525 H   0  0  0  0  0  0  0  0  0  0  0  0
    4.0952   -1.0735   26.3825 H   0  0  0  0  0  0  0  0  0  0  0  0
   12.2584   -4.9200   19.0202 H   0  0  0  0  0  0  0  0  0  0  0  0
   11.5293   -4.4298   23.7130 H   0  0  0  0  0  0  0  0  0  0  0  0
   11.0645   -2.8595   23.1364 H   0  0  0  0  0  0  0  0  0  0  0  0
   13.6806   -3.4770   23.4433 H   0  0  0  0  0  0  0  0  0  0  0  0
   13.2120   -2.6209   21.9643 H   0  0  0  0  0  0  0  0  0  0  0  0
   13.8499   -5.5782   22.2633 H   0  0  0  0  0  0  0  0  0  0  0  0
   14.2265   -4.4759   20.9080 H   0  0  0  0  0  0  0  0  0  0  0  0
  1  2  2  0
  2  3  1  0
  3  4  1  0
  4  5  1  0
  5  6  1  0
  6  7  1  0
  7  8  2  0
  8  9  1  0
  9 10  2  0
 10 11  1  0
 11 12  2  0
 12 13  1  0
 13 14  2  0
  2 15  1  0
 15 16  2  0
 16 17  1  0
 17 18  1  0
 18 19  2  0
 19 20  1  0
 20 21  1  0
 21 22  1  0
 14  6  1  0
 19 15  1  0
 14  9  1  0
 22 18  1  0
  3 23  1  0
  4 24  1  0
  4 25  1  0
  5 26  1  0
  5 27  1  0
  7 28  1  0
  8 29  1  0
 10 30  1  0
 11 31  1  0
 12 32  1  0
 13 33  1  0
 17 34  1  0
 20 35  1  0
 20 36  1  0
 21 37  1  0
 21 38  1  0
 22 39  1  0
 22 40  1  0
M  END
>  <Energy>  (752) 
368.84940116120106

>  <compound_id>  (752) 
46192

>  <target_id>  (752) 
1

>  <reference_id>  (752) 
40

>  <inspiration_ids>  (752) 
[40, 122]

>  <energy_score>  (752) 
277.0567710871554

>  <distance_score>  (752) 
5.303809062875638

>  <path>  (752) 
/opt/xchem-fragalysis-2/maxwin/BulkDock/SCRATCH/511020/C46192-P40/C46192-P40.minimised.mol

>  <scratch_subdir>  (752) 
/opt/xchem-fragalysis-2/maxwin/BulkDock/SCRATCH/511020/C46192-P40

>  <fragmenstein_runtime>  (752) 
6.7119245529174805

>  <fragmenstein_outcome>  (752) 
too moved

>  <fragmenstein_mode>  (752) 
expansion

>  <fragmenstein_error>  (752) 


$$$$
C46192-P122
     RDKit          3D

 40 43  0  0  0  0  0  0  0  0999 V2000
   11.8909   -4.3532   21.8506 O   0  0  0  0  0  0  0  0  0  0  0  0
   11.4103   -4.7525   20.7935 C   0  0  0  0  0  0  0  0  0  0  0  0
    9.5801   -4.9180   20.4154 N   0  0  0  0  0  0  0  0  0  0  0  0
    7.9650   -4.3792   21.5110 C   0  0  0  0  0  0  0  0  0  0  0  0
    7.0690   -3.8657   23.3194 C   0  0  0  0  0  0  0  0  0  0  0  0
    5.9520   -2.6059   24.2719 N   0  0  0  0  0  0  0  0  0  0  0  0
    4.5687   -2.2290   24.2678 C   0  0  0  0  0  0  0  0  0  0  0  0
    4.1406   -1.6029   25.4163 C   0  0  0  0  0  0  0  0  0  0  0  0
    5.2126   -1.3930   26.2873 C   0  0  0  0  0  0  0  0  0  0  0  0
    5.2647   -0.9064   27.6097 C   0  0  0  0  0  0  0  0  0  0  0  0
    6.4742   -0.9082   28.2992 C   0  0  0  0  0  0  0  0  0  0  0  0
    7.6326   -1.3648   27.6782 C   0  0  0  0  0  0  0  0  0  0  0  0
    7.6253   -1.8379   26.3566 C   0  0  0  0  0  0  0  0  0  0  0  0
    6.3915   -1.8458   25.6468 C   0  0  0  0  0  0  0  0  0  0  0  0
   12.5689   -4.9818   19.7306 C   0  0  0  0  0  0  0  0  0  0  0  0
   12.5435   -4.6042   18.4088 N   0  0  0  0  0  0  0  0  0  0  0  0
   13.8119   -4.4932   17.9901 N   0  0  0  0  0  0  0  0  0  0  0  0
   14.6704   -4.6814   18.9997 C   0  0  0  0  0  0  0  0  0  0  0  0
   13.9443   -5.0144   20.1035 C   0  0  0  0  0  0  0  0  0  0  0  0
   14.8076   -5.1078   21.2956 C   0  0  0  0  0  0  0  0  0  0  0  0
   16.2431   -5.1130   20.6482 C   0  0  0  0  0  0  0  0  0  0  0  0
   16.1105   -4.5263   19.1967 C   0  0  0  0  0  0  0  0  0  0  0  0
    9.4633   -5.3385   19.5239 H   0  0  0  0  0  0  0  0  0  0  0  0
    7.6465   -5.3496   21.8822 H   0  0  0  0  0  0  0  0  0  0  0  0
    7.6892   -3.4656   21.1490 H   0  0  0  0  0  0  0  0  0  0  0  0
    6.6302   -4.7997   23.6330 H   0  0  0  0  0  0  0  0  0  0  0  0
    7.6981   -3.6862   24.1267 H   0  0  0  0  0  0  0  0  0  0  0  0
    3.8948   -2.4733   23.4731 H   0  0  0  0  0  0  0  0  0  0  0  0
    3.1119   -1.3391   25.6046 H   0  0  0  0  0  0  0  0  0  0  0  0
    4.3551   -0.5714   28.0970 H   0  0  0  0  0  0  0  0  0  0  0  0
    6.5109   -0.5550   29.3252 H   0  0  0  0  0  0  0  0  0  0  0  0
    8.5679   -1.3756   28.2324 H   0  0  0  0  0  0  0  0  0  0  0  0
    8.5270   -2.2537   25.9259 H   0  0  0  0  0  0  0  0  0  0  0  0
   13.9862   -4.2745   17.0137 H   0  0  0  0  0  0  0  0  0  0  0  0
   14.6344   -6.0165   21.8780 H   0  0  0  0  0  0  0  0  0  0  0  0
   14.6881   -4.2296   21.9381 H   0  0  0  0  0  0  0  0  0  0  0  0
   16.5956   -6.1509   20.5796 H   0  0  0  0  0  0  0  0  0  0  0  0
   16.9689   -4.5595   21.2524 H   0  0  0  0  0  0  0  0  0  0  0  0
   16.7141   -5.0929   18.4835 H   0  0  0  0  0  0  0  0  0  0  0  0
   16.4052   -3.4727   19.1810 H   0  0  0  0  0  0  0  0  0  0  0  0
  1  2  2  0
  2  3  1  0
  3  4  1  0
  4  5  1  0
  5  6  1  0
  6  7  1  0
  7  8  2  0
  8  9  1  0
  9 10  2  0
 10 11  1  0
 11 12  2  0
 12 13  1  0
 13 14  2  0
  2 15  1  0
 15 16  2  0
 16 17  1  0
 17 18  1  0
 18 19  2  0
 19 20  1  0
 20 21  1  0
 21 22  1  0
 14  6  1  0
 19 15  1  0
 14  9  1  0
 22 18  1  0
  3 23  1  0
  4 24  1  0
  4 25  1  0
  5 26  1  0
  5 27  1  0
  7 28  1  0
  8 29  1  0
 10 30  1  0
 11 31  1  0
 12 32  1  0
 13 33  1  0
 17 34  1  0
 20 35  1  0
 20 36  1  0
 21 37  1  0
 21 38  1  0
 22 39  1  0
 22 40  1  0
M  END
>  <Energy>  (753) 
528.4257453837032

>  <compound_id>  (753) 
46192

>  <target_id>  (753) 
1

>  <reference_id>  (753) 
122

>  <inspiration_ids>  (753) 
[40, 122]

>  <energy_score>  (753) 
436.6331153096661

>  <distance_score>  (753) 
6.80302219109644

>  <path>  (753) 
/opt/xchem-fragalysis-2/maxwin/BulkDock/SCRATCH/511020/C46192-P122/C46192-P122.minimised.mol

>  <scratch_subdir>  (753) 
/opt/xchem-fragalysis-2/maxwin/BulkDock/SCRATCH/511020/C46192-P122

>  <fragmenstein_runtime>  (753) 
11.608781337738037

>  <fragmenstein_outcome>  (753) 
too moved

>  <fragmenstein_mode>  (753) 
expansion

>  <fragmenstein_error>  (753) 


$$$$
C46192-P40
     RDKit          3D

 40 43  0  0  0  0  0  0  0  0999 V2000
    6.8994   -4.8841   19.6158 O   0  0  0  0  0  0  0  0  0  0  0  0
    7.6676   -4.3574   20.4034 C   0  0  0  0  0  0  0  0  0  0  0  0
    7.4303   -3.5086   21.4815 N   0  0  0  0  0  0  0  0  0  0  0  0
    5.9827   -2.9822   22.2371 C   0  0  0  0  0  0  0  0  0  0  0  0
    5.5303   -2.4918   24.0704 C   0  0  0  0  0  0  0  0  0  0  0  0
    5.0824   -3.5111   25.1376 N   0  0  0  0  0  0  0  0  0  0  0  0
    5.4586   -4.8374   25.2173 C   0  0  0  0  0  0  0  0  0  0  0  0
    4.7215   -5.4623   26.1954 C   0  0  0  0  0  0  0  0  0  0  0  0
    3.9902   -4.4648   26.8782 C   0  0  0  0  0  0  0  0  0  0  0  0
    3.1224   -4.4998   27.9919 C   0  0  0  0  0  0  0  0  0  0  0  0
    2.6154   -3.3065   28.5071 C   0  0  0  0  0  0  0  0  0  0  0  0
    2.9830   -2.0912   27.9377 C   0  0  0  0  0  0  0  0  0  0  0  0
    3.8365   -2.0318   26.8236 C   0  0  0  0  0  0  0  0  0  0  0  0
    4.3049   -3.2367   26.2717 C   0  0  0  0  0  0  0  0  0  0  0  0
    9.5966   -4.7597   20.4673 C   0  0  0  0  0  0  0  0  0  0  0  0
   10.2987   -5.5257   19.6497 N   0  0  0  0  0  0  0  0  0  0  0  0
   11.7550   -5.2377   19.8399 N   0  0  0  0  0  0  0  0  0  0  0  0
   12.1649   -5.0865   21.0782 C   0  0  0  0  0  0  0  0  0  0  0  0
   11.0529   -4.4812   21.5705 C   0  0  0  0  0  0  0  0  0  0  0  0
   11.5620   -3.7666   22.8392 C   0  0  0  0  0  0  0  0  0  0  0  0
   13.0760   -3.5477   22.5342 C   0  0  0  0  0  0  0  0  0  0  0  0
   13.4741   -4.7527   21.6511 C   0  0  0  0  0  0  0  0  0  0  0  0
    8.2057   -3.2353   21.7974 H   0  0  0  0  0  0  0  0  0  0  0  0
    6.2436   -3.8636   22.8592 H   0  0  0  0  0  0  0  0  0  0  0  0
    5.3283   -2.7604   21.4205 H   0  0  0  0  0  0  0  0  0  0  0  0
    6.2719   -2.0247   24.7115 H   0  0  0  0  0  0  0  0  0  0  0  0
    4.6803   -1.8002   23.9679 H   0  0  0  0  0  0  0  0  0  0  0  0
    6.1690   -5.2619   24.5213 H   0  0  0  0  0  0  0  0  0  0  0  0
    4.7599   -6.5204   26.4161 H   0  0  0  0  0  0  0  0  0  0  0  0
    2.8778   -5.4459   28.4616 H   0  0  0  0  0  0  0  0  0  0  0  0
    1.9508   -3.3199   29.3663 H   0  0  0  0  0  0  0  0  0  0  0  0
    2.5926   -1.1638   28.3525 H   0  0  0  0  0  0  0  0  0  0  0  0
    4.0952   -1.0735   26.3825 H   0  0  0  0  0  0  0  0  0  0  0  0
   12.2584   -4.9200   19.0202 H   0  0  0  0  0  0  0  0  0  0  0  0
   11.5293   -4.4298   23.7130 H   0  0  0  0  0  0  0  0  0  0  0  0
   11.0645   -2.8595   23.1364 H   0  0  0  0  0  0  0  0  0  0  0  0
   13.6806   -3.4770   23.4433 H   0  0  0  0  0  0  0  0  0  0  0  0
   13.2120   -2.6209   21.9643 H   0  0  0  0  0  0  0  0  0  0  0  0
   13.8499   -5.5782   22.2633 H   0  0  0  0  0  0  0  0  0  0  0  0
   14.2265   -4.4759   20.9080 H   0  0  0  0  0  0  0  0  0  0  0  0
  1  2  2  0
  2  3  1  0
  3  4  1  0
  4  5  1  0
  5  6  1  0
  6  7  1  0
  7  8  2  0
  8  9  1  0
  9 10  2  0
 10 11  1  0
 11 12  2  0
 12 13  1  0
 13 14  2  0
  2 15  1  0
 15 16  2  0
 16 17  1  0
 17 18  1  0
 18 19  2  0
 19 20  1  0
 20 21  1  0
 21 22  1  0
 14  6  1  0
 19 15  1  0
 14  9  1  0
 22 18  1  0
  3 23  1  0
  4 24  1  0
  4 25  1  0
  5 26  1  0
  5 27  1  0
  7 28  1  0
  8 29  1  0
 10 30  1  0
 11 31  1  0
 12 32  1  0
 13 33  1  0
 17 34  1  0
 20 35  1  0
 20 36  1  0
 21 37  1  0
 21 38  1  0
 22 39  1  0
 22 40  1  0
M  END
>  <Energy>  (754) 
368.84940116120106

>  <compound_id>  (754) 
46192

>  <target_id>  (754) 
1

>  <reference_id>  (754) 
40

>  <inspiration_ids>  (754) 
[40, 122]

>  <energy_score>  (754) 
277.0567710871554

>  <distance_score>  (754) 
5.303809062875638

>  <path>  (754) 
/opt/xchem-fragalysis-2/maxwin/BulkDock/SCRATCH/511020/C46192-P40/C46192-P40.minimised.mol

>  <scratch_subdir>  (754) 
/opt/xchem-fragalysis-2/maxwin/BulkDock/SCRATCH/511020/C46192-P40

>  <fragmenstein_runtime>  (754) 
6.991546869277954

>  <fragmenstein_outcome>  (754) 
too moved

>  <fragmenstein_mode>  (754) 
expansion

>  <fragmenstein_error>  (754) 


$$$$
C46192-P122
     RDKit          3D

 40 43  0  0  0  0  0  0  0  0999 V2000
   11.8909   -4.3532   21.8506 O   0  0  0  0  0  0  0  0  0  0  0  0
   11.4103   -4.7525   20.7935 C   0  0  0  0  0  0  0  0  0  0  0  0
    9.5801   -4.9180   20.4154 N   0  0  0  0  0  0  0  0  0  0  0  0
    7.9650   -4.3792   21.5110 C   0  0  0  0  0  0  0  0  0  0  0  0
    7.0690   -3.8657   23.3194 C   0  0  0  0  0  0  0  0  0  0  0  0
    5.9520   -2.6059   24.2719 N   0  0  0  0  0  0  0  0  0  0  0  0
    4.5687   -2.2290   24.2678 C   0  0  0  0  0  0  0  0  0  0  0  0
    4.1406   -1.6029   25.4163 C   0  0  0  0  0  0  0  0  0  0  0  0
    5.2126   -1.3930   26.2873 C   0  0  0  0  0  0  0  0  0  0  0  0
    5.2647   -0.9064   27.6097 C   0  0  0  0  0  0  0  0  0  0  0  0
    6.4742   -0.9082   28.2992 C   0  0  0  0  0  0  0  0  0  0  0  0
    7.6326   -1.3648   27.6782 C   0  0  0  0  0  0  0  0  0  0  0  0
    7.6253   -1.8379   26.3566 C   0  0  0  0  0  0  0  0  0  0  0  0
    6.3915   -1.8458   25.6468 C   0  0  0  0  0  0  0  0  0  0  0  0
   12.5689   -4.9818   19.7306 C   0  0  0  0  0  0  0  0  0  0  0  0
   12.5435   -4.6042   18.4088 N   0  0  0  0  0  0  0  0  0  0  0  0
   13.8119   -4.4932   17.9901 N   0  0  0  0  0  0  0  0  0  0  0  0
   14.6704   -4.6814   18.9997 C   0  0  0  0  0  0  0  0  0  0  0  0
   13.9443   -5.0144   20.1035 C   0  0  0  0  0  0  0  0  0  0  0  0
   14.8076   -5.1078   21.2956 C   0  0  0  0  0  0  0  0  0  0  0  0
   16.2431   -5.1130   20.6482 C   0  0  0  0  0  0  0  0  0  0  0  0
   16.1105   -4.5263   19.1967 C   0  0  0  0  0  0  0  0  0  0  0  0
    9.4633   -5.3385   19.5239 H   0  0  0  0  0  0  0  0  0  0  0  0
    7.6465   -5.3496   21.8822 H   0  0  0  0  0  0  0  0  0  0  0  0
    7.6892   -3.4656   21.1490 H   0  0  0  0  0  0  0  0  0  0  0  0
    6.6302   -4.7997   23.6330 H   0  0  0  0  0  0  0  0  0  0  0  0
    7.6981   -3.6862   24.1267 H   0  0  0  0  0  0  0  0  0  0  0  0
    3.8948   -2.4733   23.4731 H   0  0  0  0  0  0  0  0  0  0  0  0
    3.1119   -1.3391   25.6046 H   0  0  0  0  0  0  0  0  0  0  0  0
    4.3551   -0.5714   28.0970 H   0  0  0  0  0  0  0  0  0  0  0  0
    6.5109   -0.5550   29.3252 H   0  0  0  0  0  0  0  0  0  0  0  0
    8.5679   -1.3756   28.2324 H   0  0  0  0  0  0  0  0  0  0  0  0
    8.5270   -2.2537   25.9259 H   0  0  0  0  0  0  0  0  0  0  0  0
   13.9862   -4.2745   17.0137 H   0  0  0  0  0  0  0  0  0  0  0  0
   14.6344   -6.0165   21.8780 H   0  0  0  0  0  0  0  0  0  0  0  0
   14.6881   -4.2296   21.9381 H   0  0  0  0  0  0  0  0  0  0  0  0
   16.5956   -6.1509   20.5796 H   0  0  0  0  0  0  0  0  0  0  0  0
   16.9689   -4.5595   21.2524 H   0  0  0  0  0  0  0  0  0  0  0  0
   16.7141   -5.0929   18.4835 H   0  0  0  0  0  0  0  0  0  0  0  0
   16.4052   -3.4727   19.1810 H   0  0  0  0  0  0  0  0  0  0  0  0
  1  2  2  0
  2  3  1  0
  3  4  1  0
  4  5  1  0
  5  6  1  0
  6  7  1  0
  7  8  2  0
  8  9  1  0
  9 10  2  0
 10 11  1  0
 11 12  2  0
 12 13  1  0
 13 14  2  0
  2 15  1  0
 15 16  2  0
 16 17  1  0
 17 18  1  0
 18 19  2  0
 19 20  1  0
 20 21  1  0
 21 22  1  0
 14  6  1  0
 19 15  1  0
 14  9  1  0
 22 18  1  0
  3 23  1  0
  4 24  1  0
  4 25  1  0
  5 26  1  0
  5 27  1  0
  7 28  1  0
  8 29  1  0
 10 30  1  0
 11 31  1  0
 12 32  1  0
 13 33  1  0
 17 34  1  0
 20 35  1  0
 20 36  1  0
 21 37  1  0
 21 38  1  0
 22 39  1  0
 22 40  1  0
M  END
>  <Energy>  (755) 
528.4257453837032

>  <compound_id>  (755) 
46192

>  <target_id>  (755) 
1

>  <reference_id>  (755) 
122

>  <inspiration_ids>  (755) 
[40, 122]

>  <energy_score>  (755) 
436.6331153096661

>  <distance_score>  (755) 
6.80302219109644

>  <path>  (755) 
/opt/xchem-fragalysis-2/maxwin/BulkDock/SCRATCH/511020/C46192-P122/C46192-P122.minimised.mol

>  <scratch_subdir>  (755) 
/opt/xchem-fragalysis-2/maxwin/BulkDock/SCRATCH/511020/C46192-P122

>  <fragmenstein_runtime>  (755) 
11.293163537979126

>  <fragmenstein_outcome>  (755) 
too moved

>  <fragmenstein_mode>  (755) 
expansion

>  <fragmenstein_error>  (755) 


$$$$
C46193-P40
     RDKit          3D

 40 43  0  0  0  0  0  0  0  0999 V2000
   10.4079   -5.6376   20.4519 O   0  0  0  0  0  0  0  0  0  0  0  0
    9.8594   -5.5487   19.3742 C   0  0  0  0  0  0  0  0  0  0  0  0
    7.9584   -6.1094   19.1540 N   0  0  0  0  0  0  0  0  0  0  0  0
    6.8592   -6.8949   20.3397 C   0  0  0  0  0  0  0  0  0  0  0  0
    6.5085   -6.6821   22.3773 C   0  0  0  0  0  0  0  0  0  0  0  0
    5.5497   -6.8079   23.8622 N   0  0  0  0  0  0  0  0  0  0  0  0
    4.5353   -7.7508   24.1310 C   0  0  0  0  0  0  0  0  0  0  0  0
    4.1520   -7.8001   25.4339 C   0  0  0  0  0  0  0  0  0  0  0  0
    4.7185   -6.6906   26.0461 C   0  0  0  0  0  0  0  0  0  0  0  0
    4.5170   -6.1608   27.3431 C   0  0  0  0  0  0  0  0  0  0  0  0
    4.9169   -4.8648   27.6279 C   0  0  0  0  0  0  0  0  0  0  0  0
    5.4785   -4.1126   26.6135 C   0  0  0  0  0  0  0  0  0  0  0  0
    5.8342   -2.2776   26.9266 Br  0  0  0  0  0  0  0  0  0  0  0  0
    5.7411   -4.6641   25.3452 C   0  0  0  0  0  0  0  0  0  0  0  0
    5.4534   -5.9982   25.0461 C   0  0  0  0  0  0  0  0  0  0  0  0
   11.1014   -4.8263   18.0985 C   0  0  0  0  0  0  0  0  0  0  0  0
   11.3097   -4.4358   16.7401 N   0  0  0  0  0  0  0  0  0  0  0  0
   12.3523   -3.6345   16.4295 N   0  0  0  0  0  0  0  0  0  0  0  0
   13.0843   -3.7271   17.5122 C   0  0  0  0  0  0  0  0  0  0  0  0
   12.4436   -4.4119   18.5337 C   0  0  0  0  0  0  0  0  0  0  0  0
   13.2855   -4.4356   19.7586 C   0  0  0  0  0  0  0  0  0  0  0  0
   14.4182   -3.4083   19.4138 C   0  0  0  0  0  0  0  0  0  0  0  0
   14.4062   -3.1989   17.8662 C   0  0  0  0  0  0  0  0  0  0  0  0
    7.6313   -5.8787   18.1763 H   0  0  0  0  0  0  0  0  0  0  0  0
    6.3548   -7.5710   19.7002 H   0  0  0  0  0  0  0  0  0  0  0  0
    6.7103   -5.6939   20.2103 H   0  0  0  0  0  0  0  0  0  0  0  0
    6.7042   -5.6465   22.6381 H   0  0  0  0  0  0  0  0  0  0  0  0
    5.6075   -7.1916   22.1731 H   0  0  0  0  0  0  0  0  0  0  0  0
    4.1631   -8.3876   23.3652 H   0  0  0  0  0  0  0  0  0  0  0  0
    3.4292   -8.4979   25.8236 H   0  0  0  0  0  0  0  0  0  0  0  0
    3.9831   -6.7387   28.0885 H   0  0  0  0  0  0  0  0  0  0  0  0
    4.7300   -4.4354   28.6064 H   0  0  0  0  0  0  0  0  0  0  0  0
    6.0295   -4.0179   24.5438 H   0  0  0  0  0  0  0  0  0  0  0  0
   10.6937   -4.6072   15.9601 H   0  0  0  0  0  0  0  0  0  0  0  0
   12.7574   -4.1359   20.6670 H   0  0  0  0  0  0  0  0  0  0  0  0
   13.7241   -5.4241   19.9111 H   0  0  0  0  0  0  0  0  0  0  0  0
   14.2016   -2.4530   19.9074 H   0  0  0  0  0  0  0  0  0  0  0  0
   15.3963   -3.7426   19.7746 H   0  0  0  0  0  0  0  0  0  0  0  0
   15.2007   -3.7858   17.3947 H   0  0  0  0  0  0  0  0  0  0  0  0
   14.5312   -2.1436   17.6096 H   0  0  0  0  0  0  0  0  0  0  0  0
  1  2  2  0
  2  3  1  0
  3  4  1  0
  4  5  1  0
  5  6  1  0
  6  7  1  0
  7  8  2  0
  8  9  1  0
  9 10  2  0
 10 11  1  0
 11 12  2  0
 12 13  1  0
 12 14  1  0
 14 15  2  0
  2 16  1  0
 16 17  1  0
 17 18  1  0
 18 19  2  0
 19 20  1  0
 20 21  1  0
 21 22  1  0
 22 23  1  0
 15  6  1  0
 20 16  2  0
 15  9  1  0
 23 19  1  0
  3 24  1  0
  4 25  1  0
  4 26  1  0
  5 27  1  0
  5 28  1  0
  7 29  1  0
  8 30  1  0
 10 31  1  0
 11 32  1  0
 14 33  1  0
 17 34  1  0
 21 35  1  0
 21 36  1  0
 22 37  1  0
 22 38  1  0
 23 39  1  0
 23 40  1  0
M  END
>  <Energy>  (756) 
508.34786174319214

>  <compound_id>  (756) 
46193

>  <target_id>  (756) 
1

>  <reference_id>  (756) 
40

>  <inspiration_ids>  (756) 
[40, 122]

>  <energy_score>  (756) 
471.8776554123854

>  <distance_score>  (756) 
5.022664440303592

>  <path>  (756) 
/opt/xchem-fragalysis-2/maxwin/BulkDock/SCRATCH/511020/C46193-P40/C46193-P40.minimised.mol

>  <scratch_subdir>  (756) 
/opt/xchem-fragalysis-2/maxwin/BulkDock/SCRATCH/511020/C46193-P40

>  <fragmenstein_runtime>  (756) 
10.910557270050049

>  <fragmenstein_outcome>  (756) 
too moved

>  <fragmenstein_mode>  (756) 
expansion

>  <fragmenstein_error>  (756) 


$$$$
C46193-P122
     RDKit          3D

 40 43  0  0  0  0  0  0  0  0999 V2000
    8.0403   -3.7262   20.6682 O   0  0  0  0  0  0  0  0  0  0  0  0
    8.4933   -3.5613   21.6718 C   0  0  0  0  0  0  0  0  0  0  0  0
    7.7007   -3.6030   23.4215 N   0  0  0  0  0  0  0  0  0  0  0  0
    6.5275   -3.7311   23.7815 C   0  0  0  0  0  0  0  0  0  0  0  0
    5.3182   -2.4030   24.5042 C   0  0  0  0  0  0  0  0  0  0  0  0
    5.0159   -1.6530   25.7619 N   0  0  0  0  0  0  0  0  0  0  0  0
    3.7133   -1.1805   25.9026 C   0  0  0  0  0  0  0  0  0  0  0  0
    3.3354   -1.1795   27.2153 C   0  0  0  0  0  0  0  0  0  0  0  0
    4.4733   -1.5305   27.9610 C   0  0  0  0  0  0  0  0  0  0  0  0
    4.6668   -1.7479   29.3401 C   0  0  0  0  0  0  0  0  0  0  0  0
    5.9357   -2.0755   29.8087 C   0  0  0  0  0  0  0  0  0  0  0  0
    7.0007   -2.1490   28.9167 C   0  0  0  0  0  0  0  0  0  0  0  0
    8.7222   -2.5971   29.5722 Br  0  0  0  0  0  0  0  0  0  0  0  0
    6.8422   -1.9270   27.5415 C   0  0  0  0  0  0  0  0  0  0  0  0
    5.5493   -1.6617   27.0583 C   0  0  0  0  0  0  0  0  0  0  0  0
   10.6991   -3.3254   21.6343 C   0  0  0  0  0  0  0  0  0  0  0  0
   11.6286   -3.3110   23.0553 N   0  0  0  0  0  0  0  0  0  0  0  0
   12.6092   -4.2138   23.1664 N   0  0  0  0  0  0  0  0  0  0  0  0
   12.9911   -4.3294   21.9321 C   0  0  0  0  0  0  0  0  0  0  0  0
   12.0420   -3.9224   20.9722 C   0  0  0  0  0  0  0  0  0  0  0  0
   12.7897   -4.1553   19.6431 C   0  0  0  0  0  0  0  0  0  0  0  0
   14.2891   -4.2381   20.0219 C   0  0  0  0  0  0  0  0  0  0  0  0
   14.2827   -4.8314   21.4292 C   0  0  0  0  0  0  0  0  0  0  0  0
    8.3518   -3.3279   24.1764 H   0  0  0  0  0  0  0  0  0  0  0  0
    6.4391   -3.4300   22.7422 H   0  0  0  0  0  0  0  0  0  0  0  0
    6.3738   -4.8024   23.8513 H   0  0  0  0  0  0  0  0  0  0  0  0
    4.3955   -3.0268   24.5990 H   0  0  0  0  0  0  0  0  0  0  0  0
    4.9886   -1.8341   23.6399 H   0  0  0  0  0  0  0  0  0  0  0  0
    3.1210   -1.0485   25.0193 H   0  0  0  0  0  0  0  0  0  0  0  0
    2.3380   -0.9804   27.5810 H   0  0  0  0  0  0  0  0  0  0  0  0
    3.8318   -1.6602   30.0286 H   0  0  0  0  0  0  0  0  0  0  0  0
    6.0846   -2.2499   30.8701 H   0  0  0  0  0  0  0  0  0  0  0  0
    7.6695   -2.0474   26.8514 H   0  0  0  0  0  0  0  0  0  0  0  0
   11.3142   -2.8583   23.9031 H   0  0  0  0  0  0  0  0  0  0  0  0
   12.6820   -3.3889   18.8772 H   0  0  0  0  0  0  0  0  0  0  0  0
   12.5128   -5.1228   19.2391 H   0  0  0  0  0  0  0  0  0  0  0  0
   14.8716   -4.8326   19.3121 H   0  0  0  0  0  0  0  0  0  0  0  0
   14.7139   -3.2259   20.0467 H   0  0  0  0  0  0  0  0  0  0  0  0
   15.1381   -4.4858   22.0158 H   0  0  0  0  0  0  0  0  0  0  0  0
   14.2833   -5.9260   21.3964 H   0  0  0  0  0  0  0  0  0  0  0  0
  1  2  2  0
  2  3  1  0
  3  4  1  0
  4  5  1  0
  5  6  1  0
  6  7  1  0
  7  8  2  0
  8  9  1  0
  9 10  2  0
 10 11  1  0
 11 12  2  0
 12 13  1  0
 12 14  1  0
 14 15  2  0
  2 16  1  0
 16 17  1  0
 17 18  1  0
 18 19  2  0
 19 20  1  0
 20 21  1  0
 21 22  1  0
 22 23  1  0
 15  6  1  0
 20 16  2  0
 15  9  1  0
 23 19  1  0
  3 24  1  0
  4 25  1  0
  4 26  1  0
  5 27  1  0
  5 28  1  0
  7 29  1  0
  8 30  1  0
 10 31  1  0
 11 32  1  0
 14 33  1  0
 17 34  1  0
 21 35  1  0
 21 36  1  0
 22 37  1  0
 22 38  1  0
 23 39  1  0
 23 40  1  0
M  END
>  <Energy>  (757) 
556.66300613911892

>  <compound_id>  (757) 
46193

>  <target_id>  (757) 
1

>  <reference_id>  (757) 
122

>  <inspiration_ids>  (757) 
[40, 122]

>  <energy_score>  (757) 
520.1927998083246

>  <distance_score>  (757) 
6.785155462502054

>  <path>  (757) 
/opt/xchem-fragalysis-2/maxwin/BulkDock/SCRATCH/511020/C46193-P122/C46193-P122.minimised.mol

>  <scratch_subdir>  (757) 
/opt/xchem-fragalysis-2/maxwin/BulkDock/SCRATCH/511020/C46193-P122

>  <fragmenstein_runtime>  (757) 
8.251217603683472

>  <fragmenstein_outcome>  (757) 
too moved

>  <fragmenstein_mode>  (757) 
expansion

>  <fragmenstein_error>  (757) 


$$$$
C46193-P40
     RDKit          3D

 40 43  0  0  0  0  0  0  0  0999 V2000
   10.4079   -5.6376   20.4519 O   0  0  0  0  0  0  0  0  0  0  0  0
    9.8594   -5.5487   19.3742 C   0  0  0  0  0  0  0  0  0  0  0  0
    7.9584   -6.1094   19.1540 N   0  0  0  0  0  0  0  0  0  0  0  0
    6.8592   -6.8949   20.3397 C   0  0  0  0  0  0  0  0  0  0  0  0
    6.5085   -6.6821   22.3773 C   0  0  0  0  0  0  0  0  0  0  0  0
    5.5497   -6.8079   23.8622 N   0  0  0  0  0  0  0  0  0  0  0  0
    4.5353   -7.7508   24.1310 C   0  0  0  0  0  0  0  0  0  0  0  0
    4.1520   -7.8001   25.4339 C   0  0  0  0  0  0  0  0  0  0  0  0
    4.7185   -6.6906   26.0461 C   0  0  0  0  0  0  0  0  0  0  0  0
    4.5170   -6.1608   27.3431 C   0  0  0  0  0  0  0  0  0  0  0  0
    4.9169   -4.8648   27.6279 C   0  0  0  0  0  0  0  0  0  0  0  0
    5.4785   -4.1126   26.6135 C   0  0  0  0  0  0  0  0  0  0  0  0
    5.8342   -2.2776   26.9266 Br  0  0  0  0  0  0  0  0  0  0  0  0
    5.7411   -4.6641   25.3452 C   0  0  0  0  0  0  0  0  0  0  0  0
    5.4534   -5.9982   25.0461 C   0  0  0  0  0  0  0  0  0  0  0  0
   11.1014   -4.8263   18.0985 C   0  0  0  0  0  0  0  0  0  0  0  0
   11.3097   -4.4358   16.7401 N   0  0  0  0  0  0  0  0  0  0  0  0
   12.3523   -3.6345   16.4295 N   0  0  0  0  0  0  0  0  0  0  0  0
   13.0843   -3.7271   17.5122 C   0  0  0  0  0  0  0  0  0  0  0  0
   12.4436   -4.4119   18.5337 C   0  0  0  0  0  0  0  0  0  0  0  0
   13.2855   -4.4356   19.7586 C   0  0  0  0  0  0  0  0  0  0  0  0
   14.4182   -3.4083   19.4138 C   0  0  0  0  0  0  0  0  0  0  0  0
   14.4062   -3.1989   17.8662 C   0  0  0  0  0  0  0  0  0  0  0  0
    7.6313   -5.8787   18.1763 H   0  0  0  0  0  0  0  0  0  0  0  0
    6.3548   -7.5710   19.7002 H   0  0  0  0  0  0  0  0  0  0  0  0
    6.7103   -5.6939   20.2103 H   0  0  0  0  0  0  0  0  0  0  0  0
    6.7042   -5.6465   22.6381 H   0  0  0  0  0  0  0  0  0  0  0  0
    5.6075   -7.1916   22.1731 H   0  0  0  0  0  0  0  0  0  0  0  0
    4.1631   -8.3876   23.3652 H   0  0  0  0  0  0  0  0  0  0  0  0
    3.4292   -8.4979   25.8236 H   0  0  0  0  0  0  0  0  0  0  0  0
    3.9831   -6.7387   28.0885 H   0  0  0  0  0  0  0  0  0  0  0  0
    4.7300   -4.4354   28.6064 H   0  0  0  0  0  0  0  0  0  0  0  0
    6.0295   -4.0179   24.5438 H   0  0  0  0  0  0  0  0  0  0  0  0
   10.6937   -4.6072   15.9601 H   0  0  0  0  0  0  0  0  0  0  0  0
   12.7574   -4.1359   20.6670 H   0  0  0  0  0  0  0  0  0  0  0  0
   13.7241   -5.4241   19.9111 H   0  0  0  0  0  0  0  0  0  0  0  0
   14.2016   -2.4530   19.9074 H   0  0  0  0  0  0  0  0  0  0  0  0
   15.3963   -3.7426   19.7746 H   0  0  0  0  0  0  0  0  0  0  0  0
   15.2007   -3.7858   17.3947 H   0  0  0  0  0  0  0  0  0  0  0  0
   14.5312   -2.1436   17.6096 H   0  0  0  0  0  0  0  0  0  0  0  0
  1  2  2  0
  2  3  1  0
  3  4  1  0
  4  5  1  0
  5  6  1  0
  6  7  1  0
  7  8  2  0
  8  9  1  0
  9 10  2  0
 10 11  1  0
 11 12  2  0
 12 13  1  0
 12 14  1  0
 14 15  2  0
  2 16  1  0
 16 17  1  0
 17 18  1  0
 18 19  2  0
 19 20  1  0
 20 21  1  0
 21 22  1  0
 22 23  1  0
 15  6  1  0
 20 16  2  0
 15  9  1  0
 23 19  1  0
  3 24  1  0
  4 25  1  0
  4 26  1  0
  5 27  1  0
  5 28  1  0
  7 29  1  0
  8 30  1  0
 10 31  1  0
 11 32  1  0
 14 33  1  0
 17 34  1  0
 21 35  1  0
 21 36  1  0
 22 37  1  0
 22 38  1  0
 23 39  1  0
 23 40  1  0
M  END
>  <Energy>  (758) 
508.34786174319214

>  <compound_id>  (758) 
46193

>  <target_id>  (758) 
1

>  <reference_id>  (758) 
40

>  <inspiration_ids>  (758) 
[40, 122]

>  <energy_score>  (758) 
471.8776554123854

>  <distance_score>  (758) 
5.022664440303592

>  <path>  (758) 
/opt/xchem-fragalysis-2/maxwin/BulkDock/SCRATCH/511020/C46193-P40/C46193-P40.minimised.mol

>  <scratch_subdir>  (758) 
/opt/xchem-fragalysis-2/maxwin/BulkDock/SCRATCH/511020/C46193-P40

>  <fragmenstein_runtime>  (758) 
9.190932512283325

>  <fragmenstein_outcome>  (758) 
too moved

>  <fragmenstein_mode>  (758) 
expansion

>  <fragmenstein_error>  (758) 


$$$$
C46193-P122
     RDKit          3D

 40 43  0  0  0  0  0  0  0  0999 V2000
    8.0403   -3.7262   20.6682 O   0  0  0  0  0  0  0  0  0  0  0  0
    8.4933   -3.5613   21.6718 C   0  0  0  0  0  0  0  0  0  0  0  0
    7.7007   -3.6030   23.4215 N   0  0  0  0  0  0  0  0  0  0  0  0
    6.5275   -3.7311   23.7815 C   0  0  0  0  0  0  0  0  0  0  0  0
    5.3182   -2.4030   24.5042 C   0  0  0  0  0  0  0  0  0  0  0  0
    5.0159   -1.6530   25.7619 N   0  0  0  0  0  0  0  0  0  0  0  0
    3.7133   -1.1805   25.9026 C   0  0  0  0  0  0  0  0  0  0  0  0
    3.3354   -1.1795   27.2153 C   0  0  0  0  0  0  0  0  0  0  0  0
    4.4733   -1.5305   27.9610 C   0  0  0  0  0  0  0  0  0  0  0  0
    4.6668   -1.7479   29.3401 C   0  0  0  0  0  0  0  0  0  0  0  0
    5.9357   -2.0755   29.8087 C   0  0  0  0  0  0  0  0  0  0  0  0
    7.0007   -2.1490   28.9167 C   0  0  0  0  0  0  0  0  0  0  0  0
    8.7222   -2.5971   29.5722 Br  0  0  0  0  0  0  0  0  0  0  0  0
    6.8422   -1.9270   27.5415 C   0  0  0  0  0  0  0  0  0  0  0  0
    5.5493   -1.6617   27.0583 C   0  0  0  0  0  0  0  0  0  0  0  0
   10.6991   -3.3254   21.6343 C   0  0  0  0  0  0  0  0  0  0  0  0
   11.6286   -3.3110   23.0553 N   0  0  0  0  0  0  0  0  0  0  0  0
   12.6092   -4.2138   23.1664 N   0  0  0  0  0  0  0  0  0  0  0  0
   12.9911   -4.3294   21.9321 C   0  0  0  0  0  0  0  0  0  0  0  0
   12.0420   -3.9224   20.9722 C   0  0  0  0  0  0  0  0  0  0  0  0
   12.7897   -4.1553   19.6431 C   0  0  0  0  0  0  0  0  0  0  0  0
   14.2891   -4.2381   20.0219 C   0  0  0  0  0  0  0  0  0  0  0  0
   14.2827   -4.8314   21.4292 C   0  0  0  0  0  0  0  0  0  0  0  0
    8.3518   -3.3279   24.1764 H   0  0  0  0  0  0  0  0  0  0  0  0
    6.4391   -3.4300   22.7422 H   0  0  0  0  0  0  0  0  0  0  0  0
    6.3738   -4.8024   23.8513 H   0  0  0  0  0  0  0  0  0  0  0  0
    4.3955   -3.0268   24.5990 H   0  0  0  0  0  0  0  0  0  0  0  0
    4.9886   -1.8341   23.6399 H   0  0  0  0  0  0  0  0  0  0  0  0
    3.1210   -1.0485   25.0193 H   0  0  0  0  0  0  0  0  0  0  0  0
    2.3380   -0.9804   27.5810 H   0  0  0  0  0  0  0  0  0  0  0  0
    3.8318   -1.6602   30.0286 H   0  0  0  0  0  0  0  0  0  0  0  0
    6.0846   -2.2499   30.8701 H   0  0  0  0  0  0  0  0  0  0  0  0
    7.6695   -2.0474   26.8514 H   0  0  0  0  0  0  0  0  0  0  0  0
   11.3142   -2.8583   23.9031 H   0  0  0  0  0  0  0  0  0  0  0  0
   12.6820   -3.3889   18.8772 H   0  0  0  0  0  0  0  0  0  0  0  0
   12.5128   -5.1228   19.2391 H   0  0  0  0  0  0  0  0  0  0  0  0
   14.8716   -4.8326   19.3121 H   0  0  0  0  0  0  0  0  0  0  0  0
   14.7139   -3.2259   20.0467 H   0  0  0  0  0  0  0  0  0  0  0  0
   15.1381   -4.4858   22.0158 H   0  0  0  0  0  0  0  0  0  0  0  0
   14.2833   -5.9260   21.3964 H   0  0  0  0  0  0  0  0  0  0  0  0
  1  2  2  0
  2  3  1  0
  3  4  1  0
  4  5  1  0
  5  6  1  0
  6  7  1  0
  7  8  2  0
  8  9  1  0
  9 10  2  0
 10 11  1  0
 11 12  2  0
 12 13  1  0
 12 14  1  0
 14 15  2  0
  2 16  1  0
 16 17  1  0
 17 18  1  0
 18 19  2  0
 19 20  1  0
 20 21  1  0
 21 22  1  0
 22 23  1  0
 15  6  1  0
 20 16  2  0
 15  9  1  0
 23 19  1  0
  3 24  1  0
  4 25  1  0
  4 26  1  0
  5 27  1  0
  5 28  1  0
  7 29  1  0
  8 30  1  0
 10 31  1  0
 11 32  1  0
 14 33  1  0
 17 34  1  0
 21 35  1  0
 21 36  1  0
 22 37  1  0
 22 38  1  0
 23 39  1  0
 23 40  1  0
M  END
>  <Energy>  (759) 
556.66300613911892

>  <compound_id>  (759) 
46193

>  <target_id>  (759) 
1

>  <reference_id>  (759) 
122

>  <inspiration_ids>  (759) 
[40, 122]

>  <energy_score>  (759) 
520.1927998083246

>  <distance_score>  (759) 
6.785155462502054

>  <path>  (759) 
/opt/xchem-fragalysis-2/maxwin/BulkDock/SCRATCH/511020/C46193-P122/C46193-P122.minimised.mol

>  <scratch_subdir>  (759) 
/opt/xchem-fragalysis-2/maxwin/BulkDock/SCRATCH/511020/C46193-P122

>  <fragmenstein_runtime>  (759) 
8.45450735092163

>  <fragmenstein_outcome>  (759) 
too moved

>  <fragmenstein_mode>  (759) 
expansion

>  <fragmenstein_error>  (759) 


$$$$
C46194-P40
     RDKit          3D

 44 47  0  0  0  0  0  0  0  0999 V2000
    2.4658   -3.7939   29.4568 C   0  0  0  0  0  0  0  0  0  0  0  0
    2.7752   -5.0385   28.8388 O   0  0  0  0  0  0  0  0  0  0  0  0
    3.6082   -5.0014   27.7463 C   0  0  0  0  0  0  0  0  0  0  0  0
    4.3129   -3.9101   27.2382 C   0  0  0  0  0  0  0  0  0  0  0  0
    5.1242   -4.0092   26.0686 C   0  0  0  0  0  0  0  0  0  0  0  0
    5.2034   -5.2395   25.3797 C   0  0  0  0  0  0  0  0  0  0  0  0
    4.5026   -6.3455   25.9119 C   0  0  0  0  0  0  0  0  0  0  0  0
    4.6840   -7.4190   25.0273 C   0  0  0  0  0  0  0  0  0  0  0  0
    5.3766   -6.9159   23.9652 C   0  0  0  0  0  0  0  0  0  0  0  0
    5.8091   -5.6582   24.1391 N   0  0  0  0  0  0  0  0  0  0  0  0
    6.7065   -4.8668   23.1509 C   0  0  0  0  0  0  0  0  0  0  0  0
    7.5500   -4.5408   21.3266 C   0  0  0  0  0  0  0  0  0  0  0  0
    9.2978   -4.4379   20.6516 N   0  0  0  0  0  0  0  0  0  0  0  0
   10.7073   -5.4443   20.9187 C   0  0  0  0  0  0  0  0  0  0  0  0
   10.8221   -6.4953   21.5414 O   0  0  0  0  0  0  0  0  0  0  0  0
   12.1007   -4.9611   20.4352 C   0  0  0  0  0  0  0  0  0  0  0  0
   12.5786   -4.4967   19.2036 N   0  0  0  0  0  0  0  0  0  0  0  0
   13.7730   -3.8597   19.2222 N   0  0  0  0  0  0  0  0  0  0  0  0
   14.1557   -4.0845   20.4632 C   0  0  0  0  0  0  0  0  0  0  0  0
   13.2039   -4.7488   21.2374 C   0  0  0  0  0  0  0  0  0  0  0  0
   13.6350   -4.8745   22.6406 C   0  0  0  0  0  0  0  0  0  0  0  0
   14.8540   -3.8883   22.6931 C   0  0  0  0  0  0  0  0  0  0  0  0
   15.3424   -3.6677   21.2197 C   0  0  0  0  0  0  0  0  0  0  0  0
    3.7313   -6.2221   27.0906 C   0  0  0  0  0  0  0  0  0  0  0  0
    1.7466   -3.9863   30.2585 H   0  0  0  0  0  0  0  0  0  0  0  0
    2.0009   -3.1058   28.7430 H   0  0  0  0  0  0  0  0  0  0  0  0
    3.3603   -3.3493   29.9045 H   0  0  0  0  0  0  0  0  0  0  0  0
    4.2666   -2.9388   27.7234 H   0  0  0  0  0  0  0  0  0  0  0  0
    5.6512   -3.1348   25.6964 H   0  0  0  0  0  0  0  0  0  0  0  0
    4.2409   -8.4052   25.0646 H   0  0  0  0  0  0  0  0  0  0  0  0
    5.4970   -7.2708   22.9800 H   0  0  0  0  0  0  0  0  0  0  0  0
    6.2441   -3.8748   23.2477 H   0  0  0  0  0  0  0  0  0  0  0  0
    7.2751   -4.8648   24.0398 H   0  0  0  0  0  0  0  0  0  0  0  0
    7.0491   -4.7531   20.3015 H   0  0  0  0  0  0  0  0  0  0  0  0
    7.3910   -3.4366   21.3323 H   0  0  0  0  0  0  0  0  0  0  0  0
    9.5416   -3.6533   20.1977 H   0  0  0  0  0  0  0  0  0  0  0  0
   12.0377   -4.4333   18.3533 H   0  0  0  0  0  0  0  0  0  0  0  0
   12.8607   -4.5820   23.3550 H   0  0  0  0  0  0  0  0  0  0  0  0
   13.9622   -5.8970   22.8545 H   0  0  0  0  0  0  0  0  0  0  0  0
   15.6542   -4.2546   23.3439 H   0  0  0  0  0  0  0  0  0  0  0  0
   14.5128   -2.9270   23.1002 H   0  0  0  0  0  0  0  0  0  0  0  0
   16.1947   -4.3179   20.9990 H   0  0  0  0  0  0  0  0  0  0  0  0
   15.6221   -2.6248   21.0490 H   0  0  0  0  0  0  0  0  0  0  0  0
    3.1984   -7.0904   27.4584 H   0  0  0  0  0  0  0  0  0  0  0  0
  1  2  1  0
  2  3  1  0
  3  4  2  0
  4  5  1  0
  5  6  2  0
  6  7  1  0
  7  8  1  0
  8  9  2  0
  9 10  1  0
 10 11  1  0
 11 12  1  0
 12 13  1  0
 13 14  1  0
 14 15  2  0
 14 16  1  0
 16 17  1  0
 17 18  1  0
 18 19  2  0
 19 20  1  0
 20 21  1  0
 21 22  1  0
 22 23  1  0
  7 24  2  0
 24  3  1  0
 10  6  1  0
 20 16  2  0
 23 19  1  0
  1 25  1  0
  1 26  1  0
  1 27  1  0
  4 28  1  0
  5 29  1  0
  8 30  1  0
  9 31  1  0
 11 32  1  0
 11 33  1  0
 12 34  1  0
 12 35  1  0
 13 36  1  0
 17 37  1  0
 21 38  1  0
 21 39  1  0
 22 40  1  0
 22 41  1  0
 23 42  1  0
 23 43  1  0
 24 44  1  0
M  END
>  <Energy>  (760) 
283.57221673868662

>  <compound_id>  (760) 
46194

>  <target_id>  (760) 
1

>  <reference_id>  (760) 
40

>  <inspiration_ids>  (760) 
[40, 122]

>  <energy_score>  (760) 
247.98068870258527

>  <distance_score>  (760) 
5.41633218631908

>  <path>  (760) 
/opt/xchem-fragalysis-2/maxwin/BulkDock/SCRATCH/511020/C46194-P40/C46194-P40.minimised.mol

>  <scratch_subdir>  (760) 
/opt/xchem-fragalysis-2/maxwin/BulkDock/SCRATCH/511020/C46194-P40

>  <fragmenstein_runtime>  (760) 
10.93795371055603

>  <fragmenstein_outcome>  (760) 
too moved

>  <fragmenstein_mode>  (760) 
expansion

>  <fragmenstein_error>  (760) 


$$$$
C46194-P122
     RDKit          3D

 44 47  0  0  0  0  0  0  0  0999 V2000
    1.4788   -4.7518   31.9266 C   0  0  0  0  0  0  0  0  0  0  0  0
    2.8469   -4.6237   31.5418 O   0  0  0  0  0  0  0  0  0  0  0  0
    3.1240   -3.8302   30.4592 C   0  0  0  0  0  0  0  0  0  0  0  0
    4.4795   -3.6860   30.1460 C   0  0  0  0  0  0  0  0  0  0  0  0
    4.9255   -2.9478   29.0264 C   0  0  0  0  0  0  0  0  0  0  0  0
    3.9599   -2.3289   28.2199 C   0  0  0  0  0  0  0  0  0  0  0  0
    2.6021   -2.3791   28.5851 C   0  0  0  0  0  0  0  0  0  0  0  0
    1.9126   -1.4913   27.7290 C   0  0  0  0  0  0  0  0  0  0  0  0
    2.8468   -0.9348   26.8946 C   0  0  0  0  0  0  0  0  0  0  0  0
    4.0240   -1.6308   27.0216 N   0  0  0  0  0  0  0  0  0  0  0  0
    5.1039   -1.4659   26.0132 C   0  0  0  0  0  0  0  0  0  0  0  0
    4.7767   -2.2041   24.6464 C   0  0  0  0  0  0  0  0  0  0  0  0
    5.7739   -2.3355   23.3580 N   0  0  0  0  0  0  0  0  0  0  0  0
    6.9594   -3.6593   22.9112 C   0  0  0  0  0  0  0  0  0  0  0  0
    7.2595   -4.6268   23.5513 O   0  0  0  0  0  0  0  0  0  0  0  0
    7.8728   -3.6397   21.3346 C   0  0  0  0  0  0  0  0  0  0  0  0
    7.7439   -4.6488   20.4130 N   0  0  0  0  0  0  0  0  0  0  0  0
    8.7665   -4.7783   19.7302 N   0  0  0  0  0  0  0  0  0  0  0  0
    9.9137   -5.2623   20.1517 C   0  0  0  0  0  0  0  0  0  0  0  0
    9.2801   -3.3795   20.3506 C   0  0  0  0  0  0  0  0  0  0  0  0
   11.1991   -3.5395   21.1990 C   0  0  0  0  0  0  0  0  0  0  0  0
   12.4209   -3.9780   20.4452 C   0  0  0  0  0  0  0  0  0  0  0  0
   11.7920   -5.2879   19.9937 C   0  0  0  0  0  0  0  0  0  0  0  0
    2.1793   -3.1676   29.6805 C   0  0  0  0  0  0  0  0  0  0  0  0
    0.9095   -5.2883   31.1609 H   0  0  0  0  0  0  0  0  0  0  0  0
    1.0338   -3.7743   32.1404 H   0  0  0  0  0  0  0  0  0  0  0  0
    1.4437   -5.3318   32.8524 H   0  0  0  0  0  0  0  0  0  0  0  0
    5.2205   -4.1804   30.7704 H   0  0  0  0  0  0  0  0  0  0  0  0
    5.9800   -2.8984   28.7741 H   0  0  0  0  0  0  0  0  0  0  0  0
    0.8641   -1.2310   27.7674 H   0  0  0  0  0  0  0  0  0  0  0  0
    2.7866   -0.1571   26.1546 H   0  0  0  0  0  0  0  0  0  0  0  0
    5.1222   -0.3843   25.8562 H   0  0  0  0  0  0  0  0  0  0  0  0
    6.0571   -1.7247   26.4795 H   0  0  0  0  0  0  0  0  0  0  0  0
    3.9445   -1.6548   24.2260 H   0  0  0  0  0  0  0  0  0  0  0  0
    4.2739   -3.1545   24.8370 H   0  0  0  0  0  0  0  0  0  0  0  0
    5.6605   -1.6890   22.5789 H   0  0  0  0  0  0  0  0  0  0  0  0
    6.9116   -4.7994   19.8513 H   0  0  0  0  0  0  0  0  0  0  0  0
   11.3200   -3.1607   22.2326 H   0  0  0  0  0  0  0  0  0  0  0  0
   11.4087   -4.4456   21.7942 H   0  0  0  0  0  0  0  0  0  0  0  0
   13.2965   -4.1484   21.0848 H   0  0  0  0  0  0  0  0  0  0  0  0
   12.7602   -3.3438   19.6246 H   0  0  0  0  0  0  0  0  0  0  0  0
   12.1839   -6.1223   20.5803 H   0  0  0  0  0  0  0  0  0  0  0  0
   12.1602   -5.2519   18.9783 H   0  0  0  0  0  0  0  0  0  0  0  0
    1.1205   -3.2001   29.9045 H   0  0  0  0  0  0  0  0  0  0  0  0
  1  2  1  0
  2  3  1  0
  3  4  2  0
  4  5  1  0
  5  6  2  0
  6  7  1  0
  7  8  1  0
  8  9  2  0
  9 10  1  0
 10 11  1  0
 11 12  1  0
 12 13  1  0
 13 14  1  0
 14 15  2  0
 14 16  1  0
 16 17  1  0
 17 18  1  0
 18 19  2  0
 19 20  1  0
 20 21  1  0
 21 22  1  0
 22 23  1  0
  7 24  2  0
 24  3  1  0
 10  6  1  0
 20 16  2  0
 23 19  1  0
  1 25  1  0
  1 26  1  0
  1 27  1  0
  4 28  1  0
  5 29  1  0
  8 30  1  0
  9 31  1  0
 11 32  1  0
 11 33  1  0
 12 34  1  0
 12 35  1  0
 13 36  1  0
 17 37  1  0
 21 38  1  0
 21 39  1  0
 22 40  1  0
 22 41  1  0
 23 42  1  0
 23 43  1  0
 24 44  1  0
M  END
>  <Energy>  (761) 
655.15813324675719

>  <compound_id>  (761) 
46194

>  <target_id>  (761) 
1

>  <reference_id>  (761) 
122

>  <inspiration_ids>  (761) 
[40, 122]

>  <energy_score>  (761) 
619.5666052106649

>  <distance_score>  (761) 
5.220810074393569

>  <path>  (761) 
/opt/xchem-fragalysis-2/maxwin/BulkDock/SCRATCH/511020/C46194-P122/C46194-P122.minimised.mol

>  <scratch_subdir>  (761) 
/opt/xchem-fragalysis-2/maxwin/BulkDock/SCRATCH/511020/C46194-P122

>  <fragmenstein_runtime>  (761) 
17.357213497161865

>  <fragmenstein_outcome>  (761) 
too moved

>  <fragmenstein_mode>  (761) 
expansion

>  <fragmenstein_error>  (761) 


$$$$
C46195-P40
     RDKit          3D

 50 53  0  0  0  0  0  0  0  0999 V2000
    2.1789   -4.4234   29.4915 C   0  0  0  0  0  0  0  0  0  0  0  0
    3.1545   -3.6071   28.8489 O   0  0  0  0  0  0  0  0  0  0  0  0
    3.8001   -4.1186   27.7530 C   0  0  0  0  0  0  0  0  0  0  0  0
    4.5783   -3.2332   27.0081 C   0  0  0  0  0  0  0  0  0  0  0  0
    5.2785   -3.6197   25.8316 C   0  0  0  0  0  0  0  0  0  0  0  0
    5.1986   -4.9492   25.3714 C   0  0  0  0  0  0  0  0  0  0  0  0
    4.4116   -5.8456   26.1496 C   0  0  0  0  0  0  0  0  0  0  0  0
    4.3983   -7.0828   25.4994 C   0  0  0  0  0  0  0  0  0  0  0  0
    5.0617   -6.8988   24.3272 C   0  0  0  0  0  0  0  0  0  0  0  0
    5.6543   -5.6474   24.1996 N   0  0  0  0  0  0  0  0  0  0  0  0
    6.7315   -5.3879   22.9941 C   0  0  0  0  0  0  0  0  0  0  0  0
    7.5312   -4.5428   21.3156 C   0  0  0  0  0  0  0  0  0  0  0  0
    9.2622   -4.4174   20.6343 N   0  0  0  0  0  0  0  0  0  0  0  0
   10.6957   -5.4020   20.9031 C   0  0  0  0  0  0  0  0  0  0  0  0
   10.8327   -6.4479   21.5343 O   0  0  0  0  0  0  0  0  0  0  0  0
   12.1394   -4.8742   20.3868 C   0  0  0  0  0  0  0  0  0  0  0  0
   12.5627   -4.7122   19.1151 N   0  0  0  0  0  0  0  0  0  0  0  0
   13.8015   -4.2531   19.1836 N   0  0  0  0  0  0  0  0  0  0  0  0
   14.1524   -3.8613   20.4337 C   0  0  0  0  0  0  0  0  0  0  0  0
   13.1363   -4.3020   21.2634 C   0  0  0  0  0  0  0  0  0  0  0  0
   13.0865   -4.1404   22.7425 C   0  0  0  0  0  0  0  0  0  0  0  0
   14.3642   -4.6023   23.4472 C   0  0  0  0  0  0  0  0  0  0  0  0
   15.5791   -3.6936   23.2249 C   0  0  0  0  0  0  0  0  0  0  0  0
   16.2188   -3.7937   21.8351 C   0  0  0  0  0  0  0  0  0  0  0  0
   15.4102   -3.1346   20.7172 C   0  0  0  0  0  0  0  0  0  0  0  0
    3.7384   -5.4350   27.3298 C   0  0  0  0  0  0  0  0  0  0  0  0
    1.4013   -4.7369   28.7871 H   0  0  0  0  0  0  0  0  0  0  0  0
    2.6499   -5.2883   29.9683 H   0  0  0  0  0  0  0  0  0  0  0  0
    1.7035   -3.8248   30.2742 H   0  0  0  0  0  0  0  0  0  0  0  0
    4.6441   -2.1929   27.3242 H   0  0  0  0  0  0  0  0  0  0  0  0
    5.8220   -2.8642   25.2773 H   0  0  0  0  0  0  0  0  0  0  0  0
    3.8549   -7.9774   25.7641 H   0  0  0  0  0  0  0  0  0  0  0  0
    5.0449   -7.5275   23.4727 H   0  0  0  0  0  0  0  0  0  0  0  0
    7.1179   -4.8057   23.7590 H   0  0  0  0  0  0  0  0  0  0  0  0
    6.8785   -6.4488   22.9048 H   0  0  0  0  0  0  0  0  0  0  0  0
    7.0527   -4.7435   20.2786 H   0  0  0  0  0  0  0  0  0  0  0  0
    7.3313   -3.4461   21.4299 H   0  0  0  0  0  0  0  0  0  0  0  0
    9.4900   -3.6337   20.1731 H   0  0  0  0  0  0  0  0  0  0  0  0
   14.3341   -4.1998   18.3219 H   0  0  0  0  0  0  0  0  0  0  0  0
   12.8847   -3.0906   22.9855 H   0  0  0  0  0  0  0  0  0  0  0  0
   12.2524   -4.7183   23.1508 H   0  0  0  0  0  0  0  0  0  0  0  0
   14.1593   -4.6212   24.5253 H   0  0  0  0  0  0  0  0  0  0  0  0
   14.6102   -5.6318   23.1582 H   0  0  0  0  0  0  0  0  0  0  0  0
   16.3428   -3.9818   23.9587 H   0  0  0  0  0  0  0  0  0  0  0  0
   15.3171   -2.6519   23.4460 H   0  0  0  0  0  0  0  0  0  0  0  0
   16.4201   -4.8451   21.5939 H   0  0  0  0  0  0  0  0  0  0  0  0
   17.1938   -3.2920   21.8808 H   0  0  0  0  0  0  0  0  0  0  0  0
   15.1790   -2.0961   20.9834 H   0  0  0  0  0  0  0  0  0  0  0  0
   16.0323   -3.0960   19.8142 H   0  0  0  0  0  0  0  0  0  0  0  0
    3.1637   -6.1789   27.8645 H   0  0  0  0  0  0  0  0  0  0  0  0
  1  2  1  0
  2  3  1  0
  3  4  2  0
  4  5  1  0
  5  6  2  0
  6  7  1  0
  7  8  1  0
  8  9  2  0
  9 10  1  0
 10 11  1  0
 11 12  1  0
 12 13  1  0
 13 14  1  0
 14 15  2  0
 14 16  1  0
 16 17  2  0
 17 18  1  0
 18 19  1  0
 19 20  2  0
 20 21  1  0
 21 22  1  0
 22 23  1  0
 23 24  1  0
 24 25  1  0
  7 26  2  0
 26  3  1  0
 10  6  1  0
 20 16  1  0
 25 19  1  0
  1 27  1  0
  1 28  1  0
  1 29  1  0
  4 30  1  0
  5 31  1  0
  8 32  1  0
  9 33  1  0
 11 34  1  0
 11 35  1  0
 12 36  1  0
 12 37  1  0
 13 38  1  0
 18 39  1  0
 21 40  1  0
 21 41  1  0
 22 42  1  0
 22 43  1  0
 23 44  1  0
 23 45  1  0
 24 46  1  0
 24 47  1  0
 25 48  1  0
 25 49  1  0
 26 50  1  0
M  END
>  <Energy>  (762) 
336.33057574239155

>  <compound_id>  (762) 
46195

>  <target_id>  (762) 
1

>  <reference_id>  (762) 
40

>  <inspiration_ids>  (762) 
[40, 122]

>  <energy_score>  (762) 
233.30095249755715

>  <distance_score>  (762) 
5.371925645390441

>  <path>  (762) 
/opt/xchem-fragalysis-2/maxwin/BulkDock/SCRATCH/511020/C46195-P40/C46195-P40.minimised.mol

>  <scratch_subdir>  (762) 
/opt/xchem-fragalysis-2/maxwin/BulkDock/SCRATCH/511020/C46195-P40

>  <fragmenstein_runtime>  (762) 
10.520694255828857

>  <fragmenstein_outcome>  (762) 
too moved

>  <fragmenstein_mode>  (762) 
expansion

>  <fragmenstein_error>  (762) 


$$$$
C46195-P122
     RDKit          3D

 50 53  0  0  0  0  0  0  0  0999 V2000
    3.0406   -4.4148   31.5211 C   0  0  0  0  0  0  0  0  0  0  0  0
    2.5699   -3.3166   30.7556 O   0  0  0  0  0  0  0  0  0  0  0  0
    3.3365   -2.9138   29.6948 C   0  0  0  0  0  0  0  0  0  0  0  0
    4.6839   -3.1747   29.4673 C   0  0  0  0  0  0  0  0  0  0  0  0
    5.3310   -2.7701   28.2602 C   0  0  0  0  0  0  0  0  0  0  0  0
    4.5943   -2.0968   27.2513 C   0  0  0  0  0  0  0  0  0  0  0  0
    3.3281   -1.6247   27.6311 C   0  0  0  0  0  0  0  0  0  0  0  0
    3.0342   -0.5836   26.7551 C   0  0  0  0  0  0  0  0  0  0  0  0
    3.9999   -0.5672   25.7845 C   0  0  0  0  0  0  0  0  0  0  0  0
    4.8499   -1.6715   25.8888 N   0  0  0  0  0  0  0  0  0  0  0  0
    5.1327   -2.4492   24.5607 C   0  0  0  0  0  0  0  0  0  0  0  0
    6.5019   -3.6906   23.8642 C   0  0  0  0  0  0  0  0  0  0  0  0
    7.7056   -3.5682   23.4419 N   0  0  0  0  0  0  0  0  0  0  0  0
    8.4637   -3.5806   21.6777 C   0  0  0  0  0  0  0  0  0  0  0  0
    7.9875   -3.7822   20.6817 O   0  0  0  0  0  0  0  0  0  0  0  0
   10.6933   -3.3181   21.6400 C   0  0  0  0  0  0  0  0  0  0  0  0
   11.5080   -3.3489   22.9663 N   0  0  0  0  0  0  0  0  0  0  0  0
   12.3753   -4.3694   22.9262 N   0  0  0  0  0  0  0  0  0  0  0  0
   12.6819   -4.8826   21.7079 C   0  0  0  0  0  0  0  0  0  0  0  0
   12.1619   -3.8972   20.8828 C   0  0  0  0  0  0  0  0  0  0  0  0
   13.4408   -3.0292   20.4587 C   0  0  0  0  0  0  0  0  0  0  0  0
   14.1169   -3.4710   19.1849 C   0  0  0  0  0  0  0  0  0  0  0  0
   14.5178   -4.9311   19.2193 C   0  0  0  0  0  0  0  0  0  0  0  0
   14.9252   -5.4934   20.5874 C   0  0  0  0  0  0  0  0  0  0  0  0
   13.7750   -5.8793   21.5341 C   0  0  0  0  0  0  0  0  0  0  0  0
    2.6763   -2.0882   28.7950 C   0  0  0  0  0  0  0  0  0  0  0  0
    3.2844   -5.2654   30.8791 H   0  0  0  0  0  0  0  0  0  0  0  0
    3.9077   -4.1232   32.1217 H   0  0  0  0  0  0  0  0  0  0  0  0
    2.2425   -4.7218   32.2033 H   0  0  0  0  0  0  0  0  0  0  0  0
    5.2745   -3.7217   30.1947 H   0  0  0  0  0  0  0  0  0  0  0  0
    6.3761   -3.0170   28.0989 H   0  0  0  0  0  0  0  0  0  0  0  0
    2.2076    0.1041   26.8424 H   0  0  0  0  0  0  0  0  0  0  0  0
    4.0484    0.0611   24.9236 H   0  0  0  0  0  0  0  0  0  0  0  0
    4.8380   -1.8292   23.7217 H   0  0  0  0  0  0  0  0  0  0  0  0
    4.2333   -3.0929   24.6644 H   0  0  0  0  0  0  0  0  0  0  0  0
    6.3616   -4.7681   23.8635 H   0  0  0  0  0  0  0  0  0  0  0  0
    6.9925   -3.3830   24.7729 H   0  0  0  0  0  0  0  0  0  0  0  0
    8.3900   -3.2588   24.1866 H   0  0  0  0  0  0  0  0  0  0  0  0
   12.7885   -4.6303   23.8124 H   0  0  0  0  0  0  0  0  0  0  0  0
   13.3614   -1.9518   20.4575 H   0  0  0  0  0  0  0  0  0  0  0  0
   14.1791   -3.1112   21.2745 H   0  0  0  0  0  0  0  0  0  0  0  0
   13.4739   -3.2852   18.3165 H   0  0  0  0  0  0  0  0  0  0  0  0
   15.0170   -2.8603   19.0404 H   0  0  0  0  0  0  0  0  0  0  0  0
   15.3483   -5.0672   18.5170 H   0  0  0  0  0  0  0  0  0  0  0  0
   13.6636   -5.4760   18.8254 H   0  0  0  0  0  0  0  0  0  0  0  0
   15.6048   -4.7923   21.0875 H   0  0  0  0  0  0  0  0  0  0  0  0
   15.5171   -6.4024   20.4173 H   0  0  0  0  0  0  0  0  0  0  0  0
   13.3184   -6.8176   21.2112 H   0  0  0  0  0  0  0  0  0  0  0  0
   14.2198   -6.1102   22.5116 H   0  0  0  0  0  0  0  0  0  0  0  0
    1.6687   -1.7456   29.0129 H   0  0  0  0  0  0  0  0  0  0  0  0
  1  2  1  0
  2  3  1  0
  3  4  2  0
  4  5  1  0
  5  6  2  0
  6  7  1  0
  7  8  1  0
  8  9  2  0
  9 10  1  0
 10 11  1  0
 11 12  1  0
 12 13  1  0
 13 14  1  0
 14 15  2  0
 14 16  1  0
 16 17  2  0
 17 18  1  0
 18 19  1  0
 19 20  2  0
 20 21  1  0
 21 22  1  0
 22 23  1  0
 23 24  1  0
 24 25  1  0
  7 26  2  0
 26  3  1  0
 10  6  1  0
 20 16  1  0
 25 19  1  0
  1 27  1  0
  1 28  1  0
  1 29  1  0
  4 30  1  0
  5 31  1  0
  8 32  1  0
  9 33  1  0
 11 34  1  0
 11 35  1  0
 12 36  1  0
 12 37  1  0
 13 38  1  0
 18 39  1  0
 21 40  1  0
 21 41  1  0
 22 42  1  0
 22 43  1  0
 23 44  1  0
 23 45  1  0
 24 46  1  0
 24 47  1  0
 25 48  1  0
 25 49  1  0
 26 50  1  0
M  END
>  <Energy>  (763) 
680.4150949600122

>  <compound_id>  (763) 
46195

>  <target_id>  (763) 
1

>  <reference_id>  (763) 
122

>  <inspiration_ids>  (763) 
[40, 122]

>  <energy_score>  (763) 
577.385471715189

>  <distance_score>  (763) 
6.007969377913112

>  <path>  (763) 
/opt/xchem-fragalysis-2/maxwin/BulkDock/SCRATCH/511020/C46195-P122/C46195-P122.minimised.mol

>  <scratch_subdir>  (763) 
/opt/xchem-fragalysis-2/maxwin/BulkDock/SCRATCH/511020/C46195-P122

>  <fragmenstein_runtime>  (763) 
12.765381574630737

>  <fragmenstein_outcome>  (763) 
too moved

>  <fragmenstein_mode>  (763) 
expansion

>  <fragmenstein_error>  (763) 


$$$$
C46194-P40
     RDKit          3D

 44 47  0  0  0  0  0  0  0  0999 V2000
    2.4658   -3.7939   29.4568 C   0  0  0  0  0  0  0  0  0  0  0  0
    2.7752   -5.0385   28.8388 O   0  0  0  0  0  0  0  0  0  0  0  0
    3.6082   -5.0014   27.7463 C   0  0  0  0  0  0  0  0  0  0  0  0
    4.3129   -3.9101   27.2382 C   0  0  0  0  0  0  0  0  0  0  0  0
    5.1242   -4.0092   26.0686 C   0  0  0  0  0  0  0  0  0  0  0  0
    5.2034   -5.2395   25.3797 C   0  0  0  0  0  0  0  0  0  0  0  0
    4.5026   -6.3455   25.9119 C   0  0  0  0  0  0  0  0  0  0  0  0
    4.6840   -7.4190   25.0273 C   0  0  0  0  0  0  0  0  0  0  0  0
    5.3766   -6.9159   23.9652 C   0  0  0  0  0  0  0  0  0  0  0  0
    5.8091   -5.6582   24.1391 N   0  0  0  0  0  0  0  0  0  0  0  0
    6.7065   -4.8668   23.1509 C   0  0  0  0  0  0  0  0  0  0  0  0
    7.5500   -4.5408   21.3266 C   0  0  0  0  0  0  0  0  0  0  0  0
    9.2978   -4.4379   20.6516 N   0  0  0  0  0  0  0  0  0  0  0  0
   10.7073   -5.4443   20.9187 C   0  0  0  0  0  0  0  0  0  0  0  0
   10.8221   -6.4953   21.5414 O   0  0  0  0  0  0  0  0  0  0  0  0
   12.1007   -4.9611   20.4352 C   0  0  0  0  0  0  0  0  0  0  0  0
   12.5786   -4.4967   19.2036 N   0  0  0  0  0  0  0  0  0  0  0  0
   13.7730   -3.8597   19.2222 N   0  0  0  0  0  0  0  0  0  0  0  0
   14.1557   -4.0845   20.4632 C   0  0  0  0  0  0  0  0  0  0  0  0
   13.2039   -4.7488   21.2374 C   0  0  0  0  0  0  0  0  0  0  0  0
   13.6350   -4.8745   22.6406 C   0  0  0  0  0  0  0  0  0  0  0  0
   14.8540   -3.8883   22.6931 C   0  0  0  0  0  0  0  0  0  0  0  0
   15.3424   -3.6677   21.2197 C   0  0  0  0  0  0  0  0  0  0  0  0
    3.7313   -6.2221   27.0906 C   0  0  0  0  0  0  0  0  0  0  0  0
    1.7466   -3.9863   30.2585 H   0  0  0  0  0  0  0  0  0  0  0  0
    2.0009   -3.1058   28.7430 H   0  0  0  0  0  0  0  0  0  0  0  0
    3.3603   -3.3493   29.9045 H   0  0  0  0  0  0  0  0  0  0  0  0
    4.2666   -2.9388   27.7234 H   0  0  0  0  0  0  0  0  0  0  0  0
    5.6512   -3.1348   25.6964 H   0  0  0  0  0  0  0  0  0  0  0  0
    4.2409   -8.4052   25.0646 H   0  0  0  0  0  0  0  0  0  0  0  0
    5.4970   -7.2708   22.9800 H   0  0  0  0  0  0  0  0  0  0  0  0
    6.2441   -3.8748   23.2477 H   0  0  0  0  0  0  0  0  0  0  0  0
    7.2751   -4.8648   24.0398 H   0  0  0  0  0  0  0  0  0  0  0  0
    7.0491   -4.7531   20.3015 H   0  0  0  0  0  0  0  0  0  0  0  0
    7.3910   -3.4366   21.3323 H   0  0  0  0  0  0  0  0  0  0  0  0
    9.5416   -3.6533   20.1977 H   0  0  0  0  0  0  0  0  0  0  0  0
   12.0377   -4.4333   18.3533 H   0  0  0  0  0  0  0  0  0  0  0  0
   12.8607   -4.5820   23.3550 H   0  0  0  0  0  0  0  0  0  0  0  0
   13.9622   -5.8970   22.8545 H   0  0  0  0  0  0  0  0  0  0  0  0
   15.6542   -4.2546   23.3439 H   0  0  0  0  0  0  0  0  0  0  0  0
   14.5128   -2.9270   23.1002 H   0  0  0  0  0  0  0  0  0  0  0  0
   16.1947   -4.3179   20.9990 H   0  0  0  0  0  0  0  0  0  0  0  0
   15.6221   -2.6248   21.0490 H   0  0  0  0  0  0  0  0  0  0  0  0
    3.1984   -7.0904   27.4584 H   0  0  0  0  0  0  0  0  0  0  0  0
  1  2  1  0
  2  3  1  0
  3  4  2  0
  4  5  1  0
  5  6  2  0
  6  7  1  0
  7  8  1  0
  8  9  2  0
  9 10  1  0
 10 11  1  0
 11 12  1  0
 12 13  1  0
 13 14  1  0
 14 15  2  0
 14 16  1  0
 16 17  1  0
 17 18  1  0
 18 19  2  0
 19 20  1  0
 20 21  1  0
 21 22  1  0
 22 23  1  0
  7 24  2  0
 24  3  1  0
 10  6  1  0
 20 16  2  0
 23 19  1  0
  1 25  1  0
  1 26  1  0
  1 27  1  0
  4 28  1  0
  5 29  1  0
  8 30  1  0
  9 31  1  0
 11 32  1  0
 11 33  1  0
 12 34  1  0
 12 35  1  0
 13 36  1  0
 17 37  1  0
 21 38  1  0
 21 39  1  0
 22 40  1  0
 22 41  1  0
 23 42  1  0
 23 43  1  0
 24 44  1  0
M  END
>  <Energy>  (764) 
283.57221673868662

>  <compound_id>  (764) 
46194

>  <target_id>  (764) 
1

>  <reference_id>  (764) 
40

>  <inspiration_ids>  (764) 
[40, 122]

>  <energy_score>  (764) 
247.98068870258527

>  <distance_score>  (764) 
5.41633218631908

>  <path>  (764) 
/opt/xchem-fragalysis-2/maxwin/BulkDock/SCRATCH/511020/C46194-P40/C46194-P40.minimised.mol

>  <scratch_subdir>  (764) 
/opt/xchem-fragalysis-2/maxwin/BulkDock/SCRATCH/511020/C46194-P40

>  <fragmenstein_runtime>  (764) 
11.355406284332275

>  <fragmenstein_outcome>  (764) 
too moved

>  <fragmenstein_mode>  (764) 
expansion

>  <fragmenstein_error>  (764) 


$$$$
C46194-P122
     RDKit          3D

 44 47  0  0  0  0  0  0  0  0999 V2000
    1.4788   -4.7518   31.9266 C   0  0  0  0  0  0  0  0  0  0  0  0
    2.8469   -4.6237   31.5418 O   0  0  0  0  0  0  0  0  0  0  0  0
    3.1240   -3.8302   30.4592 C   0  0  0  0  0  0  0  0  0  0  0  0
    4.4795   -3.6860   30.1460 C   0  0  0  0  0  0  0  0  0  0  0  0
    4.9255   -2.9478   29.0264 C   0  0  0  0  0  0  0  0  0  0  0  0
    3.9599   -2.3289   28.2199 C   0  0  0  0  0  0  0  0  0  0  0  0
    2.6021   -2.3791   28.5851 C   0  0  0  0  0  0  0  0  0  0  0  0
    1.9126   -1.4913   27.7290 C   0  0  0  0  0  0  0  0  0  0  0  0
    2.8468   -0.9348   26.8946 C   0  0  0  0  0  0  0  0  0  0  0  0
    4.0240   -1.6308   27.0216 N   0  0  0  0  0  0  0  0  0  0  0  0
    5.1039   -1.4659   26.0132 C   0  0  0  0  0  0  0  0  0  0  0  0
    4.7767   -2.2041   24.6464 C   0  0  0  0  0  0  0  0  0  0  0  0
    5.7739   -2.3355   23.3580 N   0  0  0  0  0  0  0  0  0  0  0  0
    6.9594   -3.6593   22.9112 C   0  0  0  0  0  0  0  0  0  0  0  0
    7.2595   -4.6268   23.5513 O   0  0  0  0  0  0  0  0  0  0  0  0
    7.8728   -3.6397   21.3346 C   0  0  0  0  0  0  0  0  0  0  0  0
    7.7439   -4.6488   20.4130 N   0  0  0  0  0  0  0  0  0  0  0  0
    8.7665   -4.7783   19.7302 N   0  0  0  0  0  0  0  0  0  0  0  0
    9.9137   -5.2623   20.1517 C   0  0  0  0  0  0  0  0  0  0  0  0
    9.2801   -3.3795   20.3506 C   0  0  0  0  0  0  0  0  0  0  0  0
   11.1991   -3.5395   21.1990 C   0  0  0  0  0  0  0  0  0  0  0  0
   12.4209   -3.9780   20.4452 C   0  0  0  0  0  0  0  0  0  0  0  0
   11.7920   -5.2879   19.9937 C   0  0  0  0  0  0  0  0  0  0  0  0
    2.1793   -3.1676   29.6805 C   0  0  0  0  0  0  0  0  0  0  0  0
    0.9095   -5.2883   31.1609 H   0  0  0  0  0  0  0  0  0  0  0  0
    1.0338   -3.7743   32.1404 H   0  0  0  0  0  0  0  0  0  0  0  0
    1.4437   -5.3318   32.8524 H   0  0  0  0  0  0  0  0  0  0  0  0
    5.2205   -4.1804   30.7704 H   0  0  0  0  0  0  0  0  0  0  0  0
    5.9800   -2.8984   28.7741 H   0  0  0  0  0  0  0  0  0  0  0  0
    0.8641   -1.2310   27.7674 H   0  0  0  0  0  0  0  0  0  0  0  0
    2.7866   -0.1571   26.1546 H   0  0  0  0  0  0  0  0  0  0  0  0
    5.1222   -0.3843   25.8562 H   0  0  0  0  0  0  0  0  0  0  0  0
    6.0571   -1.7247   26.4795 H   0  0  0  0  0  0  0  0  0  0  0  0
    3.9445   -1.6548   24.2260 H   0  0  0  0  0  0  0  0  0  0  0  0
    4.2739   -3.1545   24.8370 H   0  0  0  0  0  0  0  0  0  0  0  0
    5.6605   -1.6890   22.5789 H   0  0  0  0  0  0  0  0  0  0  0  0
    6.9116   -4.7994   19.8513 H   0  0  0  0  0  0  0  0  0  0  0  0
   11.3200   -3.1607   22.2326 H   0  0  0  0  0  0  0  0  0  0  0  0
   11.4087   -4.4456   21.7942 H   0  0  0  0  0  0  0  0  0  0  0  0
   13.2965   -4.1484   21.0848 H   0  0  0  0  0  0  0  0  0  0  0  0
   12.7602   -3.3438   19.6246 H   0  0  0  0  0  0  0  0  0  0  0  0
   12.1839   -6.1223   20.5803 H   0  0  0  0  0  0  0  0  0  0  0  0
   12.1602   -5.2519   18.9783 H   0  0  0  0  0  0  0  0  0  0  0  0
    1.1205   -3.2001   29.9045 H   0  0  0  0  0  0  0  0  0  0  0  0
  1  2  1  0
  2  3  1  0
  3  4  2  0
  4  5  1  0
  5  6  2  0
  6  7  1  0
  7  8  1  0
  8  9  2  0
  9 10  1  0
 10 11  1  0
 11 12  1  0
 12 13  1  0
 13 14  1  0
 14 15  2  0
 14 16  1  0
 16 17  1  0
 17 18  1  0
 18 19  2  0
 19 20  1  0
 20 21  1  0
 21 22  1  0
 22 23  1  0
  7 24  2  0
 24  3  1  0
 10  6  1  0
 20 16  2  0
 23 19  1  0
  1 25  1  0
  1 26  1  0
  1 27  1  0
  4 28  1  0
  5 29  1  0
  8 30  1  0
  9 31  1  0
 11 32  1  0
 11 33  1  0
 12 34  1  0
 12 35  1  0
 13 36  1  0
 17 37  1  0
 21 38  1  0
 21 39  1  0
 22 40  1  0
 22 41  1  0
 23 42  1  0
 23 43  1  0
 24 44  1  0
M  END
>  <Energy>  (765) 
655.15813324675719

>  <compound_id>  (765) 
46194

>  <target_id>  (765) 
1

>  <reference_id>  (765) 
122

>  <inspiration_ids>  (765) 
[40, 122]

>  <energy_score>  (765) 
619.5666052106649

>  <distance_score>  (765) 
5.220810074393569

>  <path>  (765) 
/opt/xchem-fragalysis-2/maxwin/BulkDock/SCRATCH/511020/C46194-P122/C46194-P122.minimised.mol

>  <scratch_subdir>  (765) 
/opt/xchem-fragalysis-2/maxwin/BulkDock/SCRATCH/511020/C46194-P122

>  <fragmenstein_runtime>  (765) 
20.252727031707764

>  <fragmenstein_outcome>  (765) 
too moved

>  <fragmenstein_mode>  (765) 
expansion

>  <fragmenstein_error>  (765) 


$$$$
C46195-P40
     RDKit          3D

 50 53  0  0  0  0  0  0  0  0999 V2000
    2.1789   -4.4234   29.4915 C   0  0  0  0  0  0  0  0  0  0  0  0
    3.1545   -3.6071   28.8489 O   0  0  0  0  0  0  0  0  0  0  0  0
    3.8001   -4.1186   27.7530 C   0  0  0  0  0  0  0  0  0  0  0  0
    4.5783   -3.2332   27.0081 C   0  0  0  0  0  0  0  0  0  0  0  0
    5.2785   -3.6197   25.8316 C   0  0  0  0  0  0  0  0  0  0  0  0
    5.1986   -4.9492   25.3714 C   0  0  0  0  0  0  0  0  0  0  0  0
    4.4116   -5.8456   26.1496 C   0  0  0  0  0  0  0  0  0  0  0  0
    4.3983   -7.0828   25.4994 C   0  0  0  0  0  0  0  0  0  0  0  0
    5.0617   -6.8988   24.3272 C   0  0  0  0  0  0  0  0  0  0  0  0
    5.6543   -5.6474   24.1996 N   0  0  0  0  0  0  0  0  0  0  0  0
    6.7315   -5.3879   22.9941 C   0  0  0  0  0  0  0  0  0  0  0  0
    7.5312   -4.5428   21.3156 C   0  0  0  0  0  0  0  0  0  0  0  0
    9.2622   -4.4174   20.6343 N   0  0  0  0  0  0  0  0  0  0  0  0
   10.6957   -5.4020   20.9031 C   0  0  0  0  0  0  0  0  0  0  0  0
   10.8327   -6.4479   21.5343 O   0  0  0  0  0  0  0  0  0  0  0  0
   12.1394   -4.8742   20.3868 C   0  0  0  0  0  0  0  0  0  0  0  0
   12.5627   -4.7122   19.1151 N   0  0  0  0  0  0  0  0  0  0  0  0
   13.8015   -4.2531   19.1836 N   0  0  0  0  0  0  0  0  0  0  0  0
   14.1524   -3.8613   20.4337 C   0  0  0  0  0  0  0  0  0  0  0  0
   13.1363   -4.3020   21.2634 C   0  0  0  0  0  0  0  0  0  0  0  0
   13.0865   -4.1404   22.7425 C   0  0  0  0  0  0  0  0  0  0  0  0
   14.3642   -4.6023   23.4472 C   0  0  0  0  0  0  0  0  0  0  0  0
   15.5791   -3.6936   23.2249 C   0  0  0  0  0  0  0  0  0  0  0  0
   16.2188   -3.7937   21.8351 C   0  0  0  0  0  0  0  0  0  0  0  0
   15.4102   -3.1346   20.7172 C   0  0  0  0  0  0  0  0  0  0  0  0
    3.7384   -5.4350   27.3298 C   0  0  0  0  0  0  0  0  0  0  0  0
    1.4013   -4.7369   28.7871 H   0  0  0  0  0  0  0  0  0  0  0  0
    2.6499   -5.2883   29.9683 H   0  0  0  0  0  0  0  0  0  0  0  0
    1.7035   -3.8248   30.2742 H   0  0  0  0  0  0  0  0  0  0  0  0
    4.6441   -2.1929   27.3242 H   0  0  0  0  0  0  0  0  0  0  0  0
    5.8220   -2.8642   25.2773 H   0  0  0  0  0  0  0  0  0  0  0  0
    3.8549   -7.9774   25.7641 H   0  0  0  0  0  0  0  0  0  0  0  0
    5.0449   -7.5275   23.4727 H   0  0  0  0  0  0  0  0  0  0  0  0
    7.1179   -4.8057   23.7590 H   0  0  0  0  0  0  0  0  0  0  0  0
    6.8785   -6.4488   22.9048 H   0  0  0  0  0  0  0  0  0  0  0  0
    7.0527   -4.7435   20.2786 H   0  0  0  0  0  0  0  0  0  0  0  0
    7.3313   -3.4461   21.4299 H   0  0  0  0  0  0  0  0  0  0  0  0
    9.4900   -3.6337   20.1731 H   0  0  0  0  0  0  0  0  0  0  0  0
   14.3341   -4.1998   18.3219 H   0  0  0  0  0  0  0  0  0  0  0  0
   12.8847   -3.0906   22.9855 H   0  0  0  0  0  0  0  0  0  0  0  0
   12.2524   -4.7183   23.1508 H   0  0  0  0  0  0  0  0  0  0  0  0
   14.1593   -4.6212   24.5253 H   0  0  0  0  0  0  0  0  0  0  0  0
   14.6102   -5.6318   23.1582 H   0  0  0  0  0  0  0  0  0  0  0  0
   16.3428   -3.9818   23.9587 H   0  0  0  0  0  0  0  0  0  0  0  0
   15.3171   -2.6519   23.4460 H   0  0  0  0  0  0  0  0  0  0  0  0
   16.4201   -4.8451   21.5939 H   0  0  0  0  0  0  0  0  0  0  0  0
   17.1938   -3.2920   21.8808 H   0  0  0  0  0  0  0  0  0  0  0  0
   15.1790   -2.0961   20.9834 H   0  0  0  0  0  0  0  0  0  0  0  0
   16.0323   -3.0960   19.8142 H   0  0  0  0  0  0  0  0  0  0  0  0
    3.1637   -6.1789   27.8645 H   0  0  0  0  0  0  0  0  0  0  0  0
  1  2  1  0
  2  3  1  0
  3  4  2  0
  4  5  1  0
  5  6  2  0
  6  7  1  0
  7  8  1  0
  8  9  2  0
  9 10  1  0
 10 11  1  0
 11 12  1  0
 12 13  1  0
 13 14  1  0
 14 15  2  0
 14 16  1  0
 16 17  2  0
 17 18  1  0
 18 19  1  0
 19 20  2  0
 20 21  1  0
 21 22  1  0
 22 23  1  0
 23 24  1  0
 24 25  1  0
  7 26  2  0
 26  3  1  0
 10  6  1  0
 20 16  1  0
 25 19  1  0
  1 27  1  0
  1 28  1  0
  1 29  1  0
  4 30  1  0
  5 31  1  0
  8 32  1  0
  9 33  1  0
 11 34  1  0
 11 35  1  0
 12 36  1  0
 12 37  1  0
 13 38  1  0
 18 39  1  0
 21 40  1  0
 21 41  1  0
 22 42  1  0
 22 43  1  0
 23 44  1  0
 23 45  1  0
 24 46  1  0
 24 47  1  0
 25 48  1  0
 25 49  1  0
 26 50  1  0
M  END
>  <Energy>  (766) 
336.33057574239155

>  <compound_id>  (766) 
46195

>  <target_id>  (766) 
1

>  <reference_id>  (766) 
40

>  <inspiration_ids>  (766) 
[40, 122]

>  <energy_score>  (766) 
233.30095249755715

>  <distance_score>  (766) 
5.371925645390441

>  <path>  (766) 
/opt/xchem-fragalysis-2/maxwin/BulkDock/SCRATCH/511020/C46195-P40/C46195-P40.minimised.mol

>  <scratch_subdir>  (766) 
/opt/xchem-fragalysis-2/maxwin/BulkDock/SCRATCH/511020/C46195-P40

>  <fragmenstein_runtime>  (766) 
9.68579888343811

>  <fragmenstein_outcome>  (766) 
too moved

>  <fragmenstein_mode>  (766) 
expansion

>  <fragmenstein_error>  (766) 


$$$$
C46195-P122
     RDKit          3D

 50 53  0  0  0  0  0  0  0  0999 V2000
    3.0406   -4.4148   31.5211 C   0  0  0  0  0  0  0  0  0  0  0  0
    2.5699   -3.3166   30.7556 O   0  0  0  0  0  0  0  0  0  0  0  0
    3.3365   -2.9138   29.6948 C   0  0  0  0  0  0  0  0  0  0  0  0
    4.6839   -3.1747   29.4673 C   0  0  0  0  0  0  0  0  0  0  0  0
    5.3310   -2.7701   28.2602 C   0  0  0  0  0  0  0  0  0  0  0  0
    4.5943   -2.0968   27.2513 C   0  0  0  0  0  0  0  0  0  0  0  0
    3.3281   -1.6247   27.6311 C   0  0  0  0  0  0  0  0  0  0  0  0
    3.0342   -0.5836   26.7551 C   0  0  0  0  0  0  0  0  0  0  0  0
    3.9999   -0.5672   25.7845 C   0  0  0  0  0  0  0  0  0  0  0  0
    4.8499   -1.6715   25.8888 N   0  0  0  0  0  0  0  0  0  0  0  0
    5.1327   -2.4492   24.5607 C   0  0  0  0  0  0  0  0  0  0  0  0
    6.5019   -3.6906   23.8642 C   0  0  0  0  0  0  0  0  0  0  0  0
    7.7056   -3.5682   23.4419 N   0  0  0  0  0  0  0  0  0  0  0  0
    8.4637   -3.5806   21.6777 C   0  0  0  0  0  0  0  0  0  0  0  0
    7.9875   -3.7822   20.6817 O   0  0  0  0  0  0  0  0  0  0  0  0
   10.6933   -3.3181   21.6400 C   0  0  0  0  0  0  0  0  0  0  0  0
   11.5080   -3.3489   22.9663 N   0  0  0  0  0  0  0  0  0  0  0  0
   12.3753   -4.3694   22.9262 N   0  0  0  0  0  0  0  0  0  0  0  0
   12.6819   -4.8826   21.7079 C   0  0  0  0  0  0  0  0  0  0  0  0
   12.1619   -3.8972   20.8828 C   0  0  0  0  0  0  0  0  0  0  0  0
   13.4408   -3.0292   20.4587 C   0  0  0  0  0  0  0  0  0  0  0  0
   14.1169   -3.4710   19.1849 C   0  0  0  0  0  0  0  0  0  0  0  0
   14.5178   -4.9311   19.2193 C   0  0  0  0  0  0  0  0  0  0  0  0
   14.9252   -5.4934   20.5874 C   0  0  0  0  0  0  0  0  0  0  0  0
   13.7750   -5.8793   21.5341 C   0  0  0  0  0  0  0  0  0  0  0  0
    2.6763   -2.0882   28.7950 C   0  0  0  0  0  0  0  0  0  0  0  0
    3.2844   -5.2654   30.8791 H   0  0  0  0  0  0  0  0  0  0  0  0
    3.9077   -4.1232   32.1217 H   0  0  0  0  0  0  0  0  0  0  0  0
    2.2425   -4.7218   32.2033 H   0  0  0  0  0  0  0  0  0  0  0  0
    5.2745   -3.7217   30.1947 H   0  0  0  0  0  0  0  0  0  0  0  0
    6.3761   -3.0170   28.0989 H   0  0  0  0  0  0  0  0  0  0  0  0
    2.2076    0.1041   26.8424 H   0  0  0  0  0  0  0  0  0  0  0  0
    4.0484    0.0611   24.9236 H   0  0  0  0  0  0  0  0  0  0  0  0
    4.8380   -1.8292   23.7217 H   0  0  0  0  0  0  0  0  0  0  0  0
    4.2333   -3.0929   24.6644 H   0  0  0  0  0  0  0  0  0  0  0  0
    6.3616   -4.7681   23.8635 H   0  0  0  0  0  0  0  0  0  0  0  0
    6.9925   -3.3830   24.7729 H   0  0  0  0  0  0  0  0  0  0  0  0
    8.3900   -3.2588   24.1866 H   0  0  0  0  0  0  0  0  0  0  0  0
   12.7885   -4.6303   23.8124 H   0  0  0  0  0  0  0  0  0  0  0  0
   13.3614   -1.9518   20.4575 H   0  0  0  0  0  0  0  0  0  0  0  0
   14.1791   -3.1112   21.2745 H   0  0  0  0  0  0  0  0  0  0  0  0
   13.4739   -3.2852   18.3165 H   0  0  0  0  0  0  0  0  0  0  0  0
   15.0170   -2.8603   19.0404 H   0  0  0  0  0  0  0  0  0  0  0  0
   15.3483   -5.0672   18.5170 H   0  0  0  0  0  0  0  0  0  0  0  0
   13.6636   -5.4760   18.8254 H   0  0  0  0  0  0  0  0  0  0  0  0
   15.6048   -4.7923   21.0875 H   0  0  0  0  0  0  0  0  0  0  0  0
   15.5171   -6.4024   20.4173 H   0  0  0  0  0  0  0  0  0  0  0  0
   13.3184   -6.8176   21.2112 H   0  0  0  0  0  0  0  0  0  0  0  0
   14.2198   -6.1102   22.5116 H   0  0  0  0  0  0  0  0  0  0  0  0
    1.6687   -1.7456   29.0129 H   0  0  0  0  0  0  0  0  0  0  0  0
  1  2  1  0
  2  3  1  0
  3  4  2  0
  4  5  1  0
  5  6  2  0
  6  7  1  0
  7  8  1  0
  8  9  2  0
  9 10  1  0
 10 11  1  0
 11 12  1  0
 12 13  1  0
 13 14  1  0
 14 15  2  0
 14 16  1  0
 16 17  2  0
 17 18  1  0
 18 19  1  0
 19 20  2  0
 20 21  1  0
 21 22  1  0
 22 23  1  0
 23 24  1  0
 24 25  1  0
  7 26  2  0
 26  3  1  0
 10  6  1  0
 20 16  1  0
 25 19  1  0
  1 27  1  0
  1 28  1  0
  1 29  1  0
  4 30  1  0
  5 31  1  0
  8 32  1  0
  9 33  1  0
 11 34  1  0
 11 35  1  0
 12 36  1  0
 12 37  1  0
 13 38  1  0
 18 39  1  0
 21 40  1  0
 21 41  1  0
 22 42  1  0
 22 43  1  0
 23 44  1  0
 23 45  1  0
 24 46  1  0
 24 47  1  0
 25 48  1  0
 25 49  1  0
 26 50  1  0
M  END
>  <Energy>  (767) 
680.4150949600122

>  <compound_id>  (767) 
46195

>  <target_id>  (767) 
1

>  <reference_id>  (767) 
122

>  <inspiration_ids>  (767) 
[40, 122]

>  <energy_score>  (767) 
577.385471715189

>  <distance_score>  (767) 
6.007969377913112

>  <path>  (767) 
/opt/xchem-fragalysis-2/maxwin/BulkDock/SCRATCH/511020/C46195-P122/C46195-P122.minimised.mol

>  <scratch_subdir>  (767) 
/opt/xchem-fragalysis-2/maxwin/BulkDock/SCRATCH/511020/C46195-P122

>  <fragmenstein_runtime>  (767) 
13.478429079055786

>  <fragmenstein_outcome>  (767) 
too moved

>  <fragmenstein_mode>  (767) 
expansion

>  <fragmenstein_error>  (767) 


$$$$
C30254-P40
     RDKit          3D

 48 51  0  0  0  0  0  0  0  0999 V2000
    7.4904   -1.3668   20.6378 O   0  0  0  0  0  0  0  0  0  0  0  0
    6.6771   -0.5973   20.4647 C   0  0  0  0  0  0  0  0  0  0  0  0
    5.1492   -0.6152   21.6174 N   0  0  0  0  0  0  0  0  0  0  0  0
    4.7773   -1.6038   23.1113 C   0  0  0  0  0  0  0  0  0  0  0  0
    5.1922   -1.8761   24.7914 C   0  0  0  0  0  0  0  0  0  0  0  0
    4.6130   -3.0023   25.5797 N   0  0  0  0  0  0  0  0  0  0  0  0
    5.0588   -4.3047   25.4969 C   0  0  0  0  0  0  0  0  0  0  0  0
    4.3303   -5.0976   26.3504 C   0  0  0  0  0  0  0  0  0  0  0  0
    3.5219   -4.2430   27.1319 C   0  0  0  0  0  0  0  0  0  0  0  0
    2.6272   -4.4762   28.1997 C   0  0  0  0  0  0  0  0  0  0  0  0
    2.0176   -3.3957   28.8378 C   0  0  0  0  0  0  0  0  0  0  0  0
    2.3060   -2.0965   28.4337 C   0  0  0  0  0  0  0  0  0  0  0  0
    3.1902   -1.8390   27.3744 C   0  0  0  0  0  0  0  0  0  0  0  0
    3.7770   -2.9282   26.7029 C   0  0  0  0  0  0  0  0  0  0  0  0
    6.8209    0.4530   19.0813 N   0  0  0  0  0  0  0  0  0  0  0  0
    7.7816    0.4728   17.9837 C   0  0  0  0  0  0  0  0  0  0  0  0
    8.3387    1.2720   16.8224 C   0  0  0  0  0  0  0  0  0  0  0  0
    9.0442    2.4368   17.3837 C   0  0  0  0  0  0  0  0  0  0  0  0
    9.6598    3.2373   16.2908 C   0  0  0  0  0  0  0  0  0  0  0  0
    9.6607    4.6230   16.0589 C   0  0  0  0  0  0  0  0  0  0  0  0
   10.4618    4.7957   14.9549 C   0  0  0  0  0  0  0  0  0  0  0  0
   10.8823    3.5551   14.5894 N   0  0  0  0  0  0  0  0  0  0  0  0
   10.4154    2.5879   15.3811 N   0  0  0  0  0  0  0  0  0  0  0  0
    8.0572    2.9881   18.3903 C   0  0  0  0  0  0  0  0  0  0  0  0
    7.6493    1.8404   19.4557 C   0  0  0  0  0  0  0  0  0  0  0  0
    4.5485    0.1889   21.3939 H   0  0  0  0  0  0  0  0  0  0  0  0
    4.7434   -0.5879   23.5300 H   0  0  0  0  0  0  0  0  0  0  0  0
    3.7268   -1.9018   23.0876 H   0  0  0  0  0  0  0  0  0  0  0  0
    6.2502   -1.9886   24.9901 H   0  0  0  0  0  0  0  0  0  0  0  0
    4.8862   -0.9793   25.3508 H   0  0  0  0  0  0  0  0  0  0  0  0
    5.8416   -4.5801   24.8018 H   0  0  0  0  0  0  0  0  0  0  0  0
    4.4344   -6.1708   26.4374 H   0  0  0  0  0  0  0  0  0  0  0  0
    2.4356   -5.4885   28.5371 H   0  0  0  0  0  0  0  0  0  0  0  0
    1.3290   -3.5632   29.6610 H   0  0  0  0  0  0  0  0  0  0  0  0
    1.8303   -1.2584   28.9393 H   0  0  0  0  0  0  0  0  0  0  0  0
    3.3797   -0.8156   27.0654 H   0  0  0  0  0  0  0  0  0  0  0  0
    8.6062    0.0191   18.4598 H   0  0  0  0  0  0  0  0  0  0  0  0
    7.1971   -0.1425   17.2991 H   0  0  0  0  0  0  0  0  0  0  0  0
    7.6187    1.5841   16.0615 H   0  0  0  0  0  0  0  0  0  0  0  0
    9.0312    0.6129   16.2766 H   0  0  0  0  0  0  0  0  0  0  0  0
    9.8734    2.0537   17.9547 H   0  0  0  0  0  0  0  0  0  0  0  0
    9.1617    5.3941   16.6283 H   0  0  0  0  0  0  0  0  0  0  0  0
   10.7612    5.6798   14.4113 H   0  0  0  0  0  0  0  0  0  0  0  0
   11.4862    3.2971   13.8166 H   0  0  0  0  0  0  0  0  0  0  0  0
    8.5237    3.8108   18.9472 H   0  0  0  0  0  0  0  0  0  0  0  0
    7.1744    3.4068   17.8979 H   0  0  0  0  0  0  0  0  0  0  0  0
    7.1287    2.4408   20.1595 H   0  0  0  0  0  0  0  0  0  0  0  0
    8.5783    1.5203   19.9400 H   0  0  0  0  0  0  0  0  0  0  0  0
  1  2  2  0
  2  3  1  0
  3  4  1  0
  4  5  1  0
  5  6  1  0
  6  7  1  0
  7  8  2  0
  8  9  1  0
  9 10  2  0
 10 11  1  0
 11 12  2  0
 12 13  1  0
 13 14  2  0
  2 15  1  0
 15 16  1  0
 16 17  1  0
 17 18  1  0
 18 19  1  0
 19 20  1  0
 20 21  2  0
 21 22  1  0
 22 23  1  0
 18 24  1  0
 24 25  1  0
 14  6  1  0
 25 15  1  0
 14  9  1  0
 23 19  2  0
  3 26  1  0
  4 27  1  0
  4 28  1  0
  5 29  1  0
  5 30  1  0
  7 31  1  0
  8 32  1  0
 10 33  1  0
 11 34  1  0
 12 35  1  0
 13 36  1  0
 16 37  1  0
 16 38  1  0
 17 39  1  0
 17 40  1  0
 18 41  1  0
 20 42  1  0
 21 43  1  0
 22 44  1  0
 24 45  1  0
 24 46  1  0
 25 47  1  0
 25 48  1  0
M  END
>  <Energy>  (768) 
332.69002990824117

>  <compound_id>  (768) 
30254

>  <target_id>  (768) 
1

>  <reference_id>  (768) 
40

>  <inspiration_ids>  (768) 
[40, 122]

>  <energy_score>  (768) 
348.0705788824211

>  <distance_score>  (768) 
5.217102252093113

>  <path>  (768) 
/opt/xchem-fragalysis-2/maxwin/BulkDock/SCRATCH/511020/C30254-P40/C30254-P40.minimised.mol

>  <scratch_subdir>  (768) 
/opt/xchem-fragalysis-2/maxwin/BulkDock/SCRATCH/511020/C30254-P40

>  <fragmenstein_runtime>  (768) 
13.924063205718994

>  <fragmenstein_outcome>  (768) 
too moved

>  <fragmenstein_mode>  (768) 
expansion

>  <fragmenstein_error>  (768) 


$$$$
C30254-P122
     RDKit          3D

 48 51  0  0  0  0  0  0  0  0999 V2000
    5.0778    0.7400   21.7601 O   0  0  0  0  0  0  0  0  0  0  0  0
    5.5725   -0.2560   21.4787 C   0  0  0  0  0  0  0  0  0  0  0  0
    5.3797   -1.6037   22.2926 N   0  0  0  0  0  0  0  0  0  0  0  0
    4.5328   -1.9395   23.8211 C   0  0  0  0  0  0  0  0  0  0  0  0
    4.2988   -0.9298   25.1669 C   0  0  0  0  0  0  0  0  0  0  0  0
    3.5562   -1.3978   26.3521 N   0  0  0  0  0  0  0  0  0  0  0  0
    3.0191   -2.6302   26.4560 C   0  0  0  0  0  0  0  0  0  0  0  0
    2.3606   -2.7864   27.6451 C   0  0  0  0  0  0  0  0  0  0  0  0
    2.5644   -1.6017   28.3688 C   0  0  0  0  0  0  0  0  0  0  0  0
    2.1598   -1.1963   29.6534 C   0  0  0  0  0  0  0  0  0  0  0  0
    2.5229    0.0687   30.1052 C   0  0  0  0  0  0  0  0  0  0  0  0
    3.2697    0.9164   29.2899 C   0  0  0  0  0  0  0  0  0  0  0  0
    3.6774    0.5348   28.0026 C   0  0  0  0  0  0  0  0  0  0  0  0
    3.3154   -0.7380   27.5504 C   0  0  0  0  0  0  0  0  0  0  0  0
    6.8189   -0.3314   20.0442 N   0  0  0  0  0  0  0  0  0  0  0  0
    7.3621    0.7056   19.2539 C   0  0  0  0  0  0  0  0  0  0  0  0
    8.1821    1.4895   17.8200 C   0  0  0  0  0  0  0  0  0  0  0  0
    8.3235    0.6590   16.5968 C   0  0  0  0  0  0  0  0  0  0  0  0
    9.6765    0.2267   16.1002 C   0  0  0  0  0  0  0  0  0  0  0  0
   10.7354    1.0327   15.6121 C   0  0  0  0  0  0  0  0  0  0  0  0
   11.6883    0.1476   15.1683 C   0  0  0  0  0  0  0  0  0  0  0  0
   11.1607   -1.0936   15.3547 N   0  0  0  0  0  0  0  0  0  0  0  0
    9.9812   -1.0734   16.0008 N   0  0  0  0  0  0  0  0  0  0  0  0
    7.3315   -0.4355   16.7470 C   0  0  0  0  0  0  0  0  0  0  0  0
    6.3070   -0.6858   18.2770 C   0  0  0  0  0  0  0  0  0  0  0  0
    5.8335   -2.3406   21.7990 H   0  0  0  0  0  0  0  0  0  0  0  0
    5.3074   -2.5051   24.3187 H   0  0  0  0  0  0  0  0  0  0  0  0
    3.6188   -2.4868   23.6006 H   0  0  0  0  0  0  0  0  0  0  0  0
    5.2738   -0.7662   25.6267 H   0  0  0  0  0  0  0  0  0  0  0  0
    3.8487    0.0306   24.9367 H   0  0  0  0  0  0  0  0  0  0  0  0
    3.1071   -3.2519   25.5901 H   0  0  0  0  0  0  0  0  0  0  0  0
    1.7934   -3.6492   27.9580 H   0  0  0  0  0  0  0  0  0  0  0  0
    1.5770   -1.8600   30.2836 H   0  0  0  0  0  0  0  0  0  0  0  0
    2.2222    0.3959   31.0965 H   0  0  0  0  0  0  0  0  0  0  0  0
    3.5460    1.9023   29.6575 H   0  0  0  0  0  0  0  0  0  0  0  0
    4.2586    1.2076   27.3811 H   0  0  0  0  0  0  0  0  0  0  0  0
    7.9251   -0.2365   18.9981 H   0  0  0  0  0  0  0  0  0  0  0  0
    7.5745    1.3745   20.0742 H   0  0  0  0  0  0  0  0  0  0  0  0
    9.1912    1.8560   17.9037 H   0  0  0  0  0  0  0  0  0  0  0  0
    7.6541    2.4432   17.6426 H   0  0  0  0  0  0  0  0  0  0  0  0
    8.0192    1.3389   15.7957 H   0  0  0  0  0  0  0  0  0  0  0  0
   10.7810    2.1125   15.5718 H   0  0  0  0  0  0  0  0  0  0  0  0
   12.6511    0.2897   14.6995 H   0  0  0  0  0  0  0  0  0  0  0  0
   11.5430   -1.9896   15.0686 H   0  0  0  0  0  0  0  0  0  0  0  0
    7.5346   -1.3370   16.1434 H   0  0  0  0  0  0  0  0  0  0  0  0
    6.6219   -0.0232   16.1096 H   0  0  0  0  0  0  0  0  0  0  0  0
    5.2710   -0.8191   17.9606 H   0  0  0  0  0  0  0  0  0  0  0  0
    6.0642   -1.7095   18.3631 H   0  0  0  0  0  0  0  0  0  0  0  0
  1  2  2  0
  2  3  1  0
  3  4  1  0
  4  5  1  0
  5  6  1  0
  6  7  1  0
  7  8  2  0
  8  9  1  0
  9 10  2  0
 10 11  1  0
 11 12  2  0
 12 13  1  0
 13 14  2  0
  2 15  1  0
 15 16  1  0
 16 17  1  0
 17 18  1  0
 18 19  1  0
 19 20  1  0
 20 21  2  0
 21 22  1  0
 22 23  1  0
 18 24  1  0
 24 25  1  0
 14  6  1  0
 25 15  1  0
 14  9  1  0
 23 19  2  0
  3 26  1  0
  4 27  1  0
  4 28  1  0
  5 29  1  0
  5 30  1  0
  7 31  1  0
  8 32  1  0
 10 33  1  0
 11 34  1  0
 12 35  1  0
 13 36  1  0
 16 37  1  0
 16 38  1  0
 17 39  1  0
 17 40  1  0
 18 41  1  0
 20 42  1  0
 21 43  1  0
 22 44  1  0
 24 45  1  0
 24 46  1  0
 25 47  1  0
 25 48  1  0
M  END
>  <Energy>  (769) 
416.73692518959649

>  <compound_id>  (769) 
30254

>  <target_id>  (769) 
1

>  <reference_id>  (769) 
122

>  <inspiration_ids>  (769) 
[40, 122]

>  <energy_score>  (769) 
432.11747416375925

>  <distance_score>  (769) 
4.902646981186944

>  <path>  (769) 
/opt/xchem-fragalysis-2/maxwin/BulkDock/SCRATCH/511020/C30254-P122/C30254-P122.minimised.mol

>  <scratch_subdir>  (769) 
/opt/xchem-fragalysis-2/maxwin/BulkDock/SCRATCH/511020/C30254-P122

>  <fragmenstein_runtime>  (769) 
11.579032897949219

>  <fragmenstein_outcome>  (769) 
too moved

>  <fragmenstein_mode>  (769) 
expansion

>  <fragmenstein_error>  (769) 


$$$$
C46196-P40
     RDKit          3D

 40 43  0  0  0  0  0  0  0  0999 V2000
    9.0322   -2.1933   20.0411 O   0  0  0  0  0  0  0  0  0  0  0  0
    9.2879   -3.2113   20.4455 C   0  0  0  0  0  0  0  0  0  0  0  0
    8.5770   -4.2337   20.6060 N   0  0  0  0  0  0  0  0  0  0  0  0
    7.2404   -4.4431   20.4541 C   0  0  0  0  0  0  0  0  0  0  0  0
    6.9381   -4.4535   22.5315 C   0  0  0  0  0  0  0  0  0  0  0  0
    6.3687   -5.2190   23.7963 N   0  0  0  0  0  0  0  0  0  0  0  0
    6.1840   -6.5621   23.8435 C   0  0  0  0  0  0  0  0  0  0  0  0
    5.6816   -7.0168   25.0288 C   0  0  0  0  0  0  0  0  0  0  0  0
    5.3506   -5.8867   25.7870 C   0  0  0  0  0  0  0  0  0  0  0  0
    4.6829   -5.7421   27.0276 C   0  0  0  0  0  0  0  0  0  0  0  0
    4.3825   -4.4731   27.5171 C   0  0  0  0  0  0  0  0  0  0  0  0
    4.7482   -3.3579   26.7784 C   0  0  0  0  0  0  0  0  0  0  0  0
    4.3558   -1.7898   27.3780 Cl  0  0  0  0  0  0  0  0  0  0  0  0
    5.4208   -3.4741   25.5513 C   0  0  0  0  0  0  0  0  0  0  0  0
    5.7483   -4.7583   25.0380 C   0  0  0  0  0  0  0  0  0  0  0  0
   11.0342   -3.8029   21.2656 C   0  0  0  0  0  0  0  0  0  0  0  0
   11.1346   -5.1975   21.2174 N   0  0  0  0  0  0  0  0  0  0  0  0
   12.4077   -5.5186   21.4066 N   0  0  0  0  0  0  0  0  0  0  0  0
   13.1630   -4.4601   21.6521 C   0  0  0  0  0  0  0  0  0  0  0  0
   12.3806   -3.3316   21.6651 C   0  0  0  0  0  0  0  0  0  0  0  0
   13.3351   -2.2216   22.0334 C   0  0  0  0  0  0  0  0  0  0  0  0
   14.7556   -2.8125   21.7579 C   0  0  0  0  0  0  0  0  0  0  0  0
   14.6042   -4.3349   21.8855 C   0  0  0  0  0  0  0  0  0  0  0  0
    9.1649   -4.9842   20.9055 H   0  0  0  0  0  0  0  0  0  0  0  0
    6.9118   -5.3308   19.8832 H   0  0  0  0  0  0  0  0  0  0  0  0
    6.4000   -3.9443   19.9014 H   0  0  0  0  0  0  0  0  0  0  0  0
    6.9038   -3.3579   22.3124 H   0  0  0  0  0  0  0  0  0  0  0  0
    6.1853   -3.7335   22.9377 H   0  0  0  0  0  0  0  0  0  0  0  0
    6.3625   -7.0461   22.9258 H   0  0  0  0  0  0  0  0  0  0  0  0
    5.4602   -8.0517   25.2527 H   0  0  0  0  0  0  0  0  0  0  0  0
    4.3965   -6.6277   27.5853 H   0  0  0  0  0  0  0  0  0  0  0  0
    3.8703   -4.3621   28.4671 H   0  0  0  0  0  0  0  0  0  0  0  0
    5.6742   -2.5772   24.9964 H   0  0  0  0  0  0  0  0  0  0  0  0
   12.6766   -6.4936   21.3815 H   0  0  0  0  0  0  0  0  0  0  0  0
   13.2541   -2.0216   23.1098 H   0  0  0  0  0  0  0  0  0  0  0  0
   13.2947   -1.2789   21.4951 H   0  0  0  0  0  0  0  0  0  0  0  0
   15.0535   -2.5620   20.7308 H   0  0  0  0  0  0  0  0  0  0  0  0
   15.5145   -2.4046   22.4326 H   0  0  0  0  0  0  0  0  0  0  0  0
   14.8691   -4.6722   22.8925 H   0  0  0  0  0  0  0  0  0  0  0  0
   15.2137   -4.8654   21.1494 H   0  0  0  0  0  0  0  0  0  0  0  0
  1  2  2  0
  2  3  1  0
  3  4  1  0
  4  5  1  0
  5  6  1  0
  6  7  1  0
  7  8  2  0
  8  9  1  0
  9 10  2  0
 10 11  1  0
 11 12  2  0
 12 13  1  0
 12 14  1  0
 14 15  2  0
  2 16  1  0
 16 17  2  0
 17 18  1  0
 18 19  1  0
 19 20  2  0
 20 21  1  0
 21 22  1  0
 22 23  1  0
 15  6  1  0
 20 16  1  0
 15  9  1  0
 23 19  1  0
  3 24  1  0
  4 25  1  0
  4 26  1  0
  5 27  1  0
  5 28  1  0
  7 29  1  0
  8 30  1  0
 10 31  1  0
 11 32  1  0
 14 33  1  0
 18 34  1  0
 21 35  1  0
 21 36  1  0
 22 37  1  0
 22 38  1  0
 23 39  1  0
 23 40  1  0
M  END
>  <Energy>  (770) 
416.44402973114791

>  <compound_id>  (770) 
46196

>  <target_id>  (770) 
1

>  <reference_id>  (770) 
40

>  <inspiration_ids>  (770) 
[40, 122]

>  <energy_score>  (770) 
323.067599979642

>  <distance_score>  (770) 
6.2330595342464665

>  <path>  (770) 
/opt/xchem-fragalysis-2/maxwin/BulkDock/SCRATCH/511020/C46196-P40/C46196-P40.minimised.mol

>  <scratch_subdir>  (770) 
/opt/xchem-fragalysis-2/maxwin/BulkDock/SCRATCH/511020/C46196-P40

>  <fragmenstein_runtime>  (770) 
6.984311819076538

>  <fragmenstein_outcome>  (770) 
too moved

>  <fragmenstein_mode>  (770) 
expansion

>  <fragmenstein_error>  (770) 


$$$$
C46196-P122
     RDKit          3D

 40 43  0  0  0  0  0  0  0  0999 V2000
    7.7063   -4.5346   19.9675 O   0  0  0  0  0  0  0  0  0  0  0  0
    8.3221   -4.7849   20.9289 C   0  0  0  0  0  0  0  0  0  0  0  0
    7.8621   -4.6332   22.7421 N   0  0  0  0  0  0  0  0  0  0  0  0
    6.6927   -4.0643   23.4198 C   0  0  0  0  0  0  0  0  0  0  0  0
    5.7659   -2.4885   24.3142 C   0  0  0  0  0  0  0  0  0  0  0  0
    4.7649   -2.1058   25.4232 N   0  0  0  0  0  0  0  0  0  0  0  0
    3.4378   -2.0748   25.2756 C   0  0  0  0  0  0  0  0  0  0  0  0
    2.8328   -1.9147   26.5039 C   0  0  0  0  0  0  0  0  0  0  0  0
    3.8165   -1.7561   27.4756 C   0  0  0  0  0  0  0  0  0  0  0  0
    3.7638   -1.6238   28.8766 C   0  0  0  0  0  0  0  0  0  0  0  0
    4.9484   -1.4512   29.5843 C   0  0  0  0  0  0  0  0  0  0  0  0
    6.1543   -1.3818   28.8958 C   0  0  0  0  0  0  0  0  0  0  0  0
    7.6170   -1.1693   29.7880 Cl  0  0  0  0  0  0  0  0  0  0  0  0
    6.2242   -1.4985   27.4995 C   0  0  0  0  0  0  0  0  0  0  0  0
    5.0286   -1.7163   26.7837 C   0  0  0  0  0  0  0  0  0  0  0  0
   10.2960   -5.3243   20.4944 C   0  0  0  0  0  0  0  0  0  0  0  0
   11.2651   -5.5445   19.5558 N   0  0  0  0  0  0  0  0  0  0  0  0
   12.5181   -5.0300   19.5525 N   0  0  0  0  0  0  0  0  0  0  0  0
   12.9000   -4.5368   20.6940 C   0  0  0  0  0  0  0  0  0  0  0  0
   11.7640   -4.5975   21.4250 C   0  0  0  0  0  0  0  0  0  0  0  0
   12.2033   -4.2111   22.8551 C   0  0  0  0  0  0  0  0  0  0  0  0
   13.7715   -4.1335   22.7619 C   0  0  0  0  0  0  0  0  0  0  0  0
   14.1254   -4.0048   21.2613 C   0  0  0  0  0  0  0  0  0  0  0  0
    8.5676   -5.0082   23.3348 H   0  0  0  0  0  0  0  0  0  0  0  0
    7.3565   -3.7497   24.1945 H   0  0  0  0  0  0  0  0  0  0  0  0
    6.3230   -5.0091   23.8124 H   0  0  0  0  0  0  0  0  0  0  0  0
    6.4883   -2.0372   25.0054 H   0  0  0  0  0  0  0  0  0  0  0  0
    5.3580   -1.9503   23.4603 H   0  0  0  0  0  0  0  0  0  0  0  0
    3.0737   -2.2193   24.2763 H   0  0  0  0  0  0  0  0  0  0  0  0
    1.7758   -1.9135   26.7140 H   0  0  0  0  0  0  0  0  0  0  0  0
    2.8102   -1.6572   29.3940 H   0  0  0  0  0  0  0  0  0  0  0  0
    4.9212   -1.3556   30.6652 H   0  0  0  0  0  0  0  0  0  0  0  0
    7.1833   -1.4973   26.9946 H   0  0  0  0  0  0  0  0  0  0  0  0
   13.0399   -5.0936   18.6855 H   0  0  0  0  0  0  0  0  0  0  0  0
   11.9524   -4.9731   23.5993 H   0  0  0  0  0  0  0  0  0  0  0  0
   11.8393   -3.2497   23.2035 H   0  0  0  0  0  0  0  0  0  0  0  0
   14.1788   -3.3106   23.3579 H   0  0  0  0  0  0  0  0  0  0  0  0
   14.1959   -5.0660   23.1572 H   0  0  0  0  0  0  0  0  0  0  0  0
   15.0177   -4.5828   21.0087 H   0  0  0  0  0  0  0  0  0  0  0  0
   14.2745   -2.9572   20.9830 H   0  0  0  0  0  0  0  0  0  0  0  0
  1  2  2  0
  2  3  1  0
  3  4  1  0
  4  5  1  0
  5  6  1  0
  6  7  1  0
  7  8  2  0
  8  9  1  0
  9 10  2  0
 10 11  1  0
 11 12  2  0
 12 13  1  0
 12 14  1  0
 14 15  2  0
  2 16  1  0
 16 17  2  0
 17 18  1  0
 18 19  1  0
 19 20  2  0
 20 21  1  0
 21 22  1  0
 22 23  1  0
 15  6  1  0
 20 16  1  0
 15  9  1  0
 23 19  1  0
  3 24  1  0
  4 25  1  0
  4 26  1  0
  5 27  1  0
  5 28  1  0
  7 29  1  0
  8 30  1  0
 10 31  1  0
 11 32  1  0
 14 33  1  0
 18 34  1  0
 21 35  1  0
 21 36  1  0
 22 37  1  0
 22 38  1  0
 23 39  1  0
 23 40  1  0
M  END
>  <Energy>  (771) 
546.50877609976328

>  <compound_id>  (771) 
46196

>  <target_id>  (771) 
1

>  <reference_id>  (771) 
122

>  <inspiration_ids>  (771) 
[40, 122]

>  <energy_score>  (771) 
453.1323463482575

>  <distance_score>  (771) 
6.093137719331096

>  <path>  (771) 
/opt/xchem-fragalysis-2/maxwin/BulkDock/SCRATCH/511020/C46196-P122/C46196-P122.minimised.mol

>  <scratch_subdir>  (771) 
/opt/xchem-fragalysis-2/maxwin/BulkDock/SCRATCH/511020/C46196-P122

>  <fragmenstein_runtime>  (771) 
12.221583604812622

>  <fragmenstein_outcome>  (771) 
too moved

>  <fragmenstein_mode>  (771) 
expansion

>  <fragmenstein_error>  (771) 


$$$$
C46196-P40
     RDKit          3D

 40 43  0  0  0  0  0  0  0  0999 V2000
    9.0322   -2.1933   20.0411 O   0  0  0  0  0  0  0  0  0  0  0  0
    9.2879   -3.2113   20.4455 C   0  0  0  0  0  0  0  0  0  0  0  0
    8.5770   -4.2337   20.6060 N   0  0  0  0  0  0  0  0  0  0  0  0
    7.2404   -4.4431   20.4541 C   0  0  0  0  0  0  0  0  0  0  0  0
    6.9381   -4.4535   22.5315 C   0  0  0  0  0  0  0  0  0  0  0  0
    6.3687   -5.2190   23.7963 N   0  0  0  0  0  0  0  0  0  0  0  0
    6.1840   -6.5621   23.8435 C   0  0  0  0  0  0  0  0  0  0  0  0
    5.6816   -7.0168   25.0288 C   0  0  0  0  0  0  0  0  0  0  0  0
    5.3506   -5.8867   25.7870 C   0  0  0  0  0  0  0  0  0  0  0  0
    4.6829   -5.7421   27.0276 C   0  0  0  0  0  0  0  0  0  0  0  0
    4.3825   -4.4731   27.5171 C   0  0  0  0  0  0  0  0  0  0  0  0
    4.7482   -3.3579   26.7784 C   0  0  0  0  0  0  0  0  0  0  0  0
    4.3558   -1.7898   27.3780 Cl  0  0  0  0  0  0  0  0  0  0  0  0
    5.4208   -3.4741   25.5513 C   0  0  0  0  0  0  0  0  0  0  0  0
    5.7483   -4.7583   25.0380 C   0  0  0  0  0  0  0  0  0  0  0  0
   11.0342   -3.8029   21.2656 C   0  0  0  0  0  0  0  0  0  0  0  0
   11.1346   -5.1975   21.2174 N   0  0  0  0  0  0  0  0  0  0  0  0
   12.4077   -5.5186   21.4066 N   0  0  0  0  0  0  0  0  0  0  0  0
   13.1630   -4.4601   21.6521 C   0  0  0  0  0  0  0  0  0  0  0  0
   12.3806   -3.3316   21.6651 C   0  0  0  0  0  0  0  0  0  0  0  0
   13.3351   -2.2216   22.0334 C   0  0  0  0  0  0  0  0  0  0  0  0
   14.7556   -2.8125   21.7579 C   0  0  0  0  0  0  0  0  0  0  0  0
   14.6042   -4.3349   21.8855 C   0  0  0  0  0  0  0  0  0  0  0  0
    9.1649   -4.9842   20.9055 H   0  0  0  0  0  0  0  0  0  0  0  0
    6.9118   -5.3308   19.8832 H   0  0  0  0  0  0  0  0  0  0  0  0
    6.4000   -3.9443   19.9014 H   0  0  0  0  0  0  0  0  0  0  0  0
    6.9038   -3.3579   22.3124 H   0  0  0  0  0  0  0  0  0  0  0  0
    6.1853   -3.7335   22.9377 H   0  0  0  0  0  0  0  0  0  0  0  0
    6.3625   -7.0461   22.9258 H   0  0  0  0  0  0  0  0  0  0  0  0
    5.4602   -8.0517   25.2527 H   0  0  0  0  0  0  0  0  0  0  0  0
    4.3965   -6.6277   27.5853 H   0  0  0  0  0  0  0  0  0  0  0  0
    3.8703   -4.3621   28.4671 H   0  0  0  0  0  0  0  0  0  0  0  0
    5.6742   -2.5772   24.9964 H   0  0  0  0  0  0  0  0  0  0  0  0
   12.6766   -6.4936   21.3815 H   0  0  0  0  0  0  0  0  0  0  0  0
   13.2541   -2.0216   23.1098 H   0  0  0  0  0  0  0  0  0  0  0  0
   13.2947   -1.2789   21.4951 H   0  0  0  0  0  0  0  0  0  0  0  0
   15.0535   -2.5620   20.7308 H   0  0  0  0  0  0  0  0  0  0  0  0
   15.5145   -2.4046   22.4326 H   0  0  0  0  0  0  0  0  0  0  0  0
   14.8691   -4.6722   22.8925 H   0  0  0  0  0  0  0  0  0  0  0  0
   15.2137   -4.8654   21.1494 H   0  0  0  0  0  0  0  0  0  0  0  0
  1  2  2  0
  2  3  1  0
  3  4  1  0
  4  5  1  0
  5  6  1  0
  6  7  1  0
  7  8  2  0
  8  9  1  0
  9 10  2  0
 10 11  1  0
 11 12  2  0
 12 13  1  0
 12 14  1  0
 14 15  2  0
  2 16  1  0
 16 17  2  0
 17 18  1  0
 18 19  1  0
 19 20  2  0
 20 21  1  0
 21 22  1  0
 22 23  1  0
 15  6  1  0
 20 16  1  0
 15  9  1  0
 23 19  1  0
  3 24  1  0
  4 25  1  0
  4 26  1  0
  5 27  1  0
  5 28  1  0
  7 29  1  0
  8 30  1  0
 10 31  1  0
 11 32  1  0
 14 33  1  0
 18 34  1  0
 21 35  1  0
 21 36  1  0
 22 37  1  0
 22 38  1  0
 23 39  1  0
 23 40  1  0
M  END
>  <Energy>  (772) 
416.44402973114791

>  <compound_id>  (772) 
46196

>  <target_id>  (772) 
1

>  <reference_id>  (772) 
40

>  <inspiration_ids>  (772) 
[40, 122]

>  <energy_score>  (772) 
323.067599979642

>  <distance_score>  (772) 
6.2330595342464665

>  <path>  (772) 
/opt/xchem-fragalysis-2/maxwin/BulkDock/SCRATCH/511020/C46196-P40/C46196-P40.minimised.mol

>  <scratch_subdir>  (772) 
/opt/xchem-fragalysis-2/maxwin/BulkDock/SCRATCH/511020/C46196-P40

>  <fragmenstein_runtime>  (772) 
7.131363868713379

>  <fragmenstein_outcome>  (772) 
too moved

>  <fragmenstein_mode>  (772) 
expansion

>  <fragmenstein_error>  (772) 


$$$$
C46196-P122
     RDKit          3D

 40 43  0  0  0  0  0  0  0  0999 V2000
    7.7063   -4.5346   19.9675 O   0  0  0  0  0  0  0  0  0  0  0  0
    8.3221   -4.7849   20.9289 C   0  0  0  0  0  0  0  0  0  0  0  0
    7.8621   -4.6332   22.7421 N   0  0  0  0  0  0  0  0  0  0  0  0
    6.6927   -4.0643   23.4198 C   0  0  0  0  0  0  0  0  0  0  0  0
    5.7659   -2.4885   24.3142 C   0  0  0  0  0  0  0  0  0  0  0  0
    4.7649   -2.1058   25.4232 N   0  0  0  0  0  0  0  0  0  0  0  0
    3.4378   -2.0748   25.2756 C   0  0  0  0  0  0  0  0  0  0  0  0
    2.8328   -1.9147   26.5039 C   0  0  0  0  0  0  0  0  0  0  0  0
    3.8165   -1.7561   27.4756 C   0  0  0  0  0  0  0  0  0  0  0  0
    3.7638   -1.6238   28.8766 C   0  0  0  0  0  0  0  0  0  0  0  0
    4.9484   -1.4512   29.5843 C   0  0  0  0  0  0  0  0  0  0  0  0
    6.1543   -1.3818   28.8958 C   0  0  0  0  0  0  0  0  0  0  0  0
    7.6170   -1.1693   29.7880 Cl  0  0  0  0  0  0  0  0  0  0  0  0
    6.2242   -1.4985   27.4995 C   0  0  0  0  0  0  0  0  0  0  0  0
    5.0286   -1.7163   26.7837 C   0  0  0  0  0  0  0  0  0  0  0  0
   10.2960   -5.3243   20.4944 C   0  0  0  0  0  0  0  0  0  0  0  0
   11.2651   -5.5445   19.5558 N   0  0  0  0  0  0  0  0  0  0  0  0
   12.5181   -5.0300   19.5525 N   0  0  0  0  0  0  0  0  0  0  0  0
   12.9000   -4.5368   20.6940 C   0  0  0  0  0  0  0  0  0  0  0  0
   11.7640   -4.5975   21.4250 C   0  0  0  0  0  0  0  0  0  0  0  0
   12.2033   -4.2111   22.8551 C   0  0  0  0  0  0  0  0  0  0  0  0
   13.7715   -4.1335   22.7619 C   0  0  0  0  0  0  0  0  0  0  0  0
   14.1254   -4.0048   21.2613 C   0  0  0  0  0  0  0  0  0  0  0  0
    8.5676   -5.0082   23.3348 H   0  0  0  0  0  0  0  0  0  0  0  0
    7.3565   -3.7497   24.1945 H   0  0  0  0  0  0  0  0  0  0  0  0
    6.3230   -5.0091   23.8124 H   0  0  0  0  0  0  0  0  0  0  0  0
    6.4883   -2.0372   25.0054 H   0  0  0  0  0  0  0  0  0  0  0  0
    5.3580   -1.9503   23.4603 H   0  0  0  0  0  0  0  0  0  0  0  0
    3.0737   -2.2193   24.2763 H   0  0  0  0  0  0  0  0  0  0  0  0
    1.7758   -1.9135   26.7140 H   0  0  0  0  0  0  0  0  0  0  0  0
    2.8102   -1.6572   29.3940 H   0  0  0  0  0  0  0  0  0  0  0  0
    4.9212   -1.3556   30.6652 H   0  0  0  0  0  0  0  0  0  0  0  0
    7.1833   -1.4973   26.9946 H   0  0  0  0  0  0  0  0  0  0  0  0
   13.0399   -5.0936   18.6855 H   0  0  0  0  0  0  0  0  0  0  0  0
   11.9524   -4.9731   23.5993 H   0  0  0  0  0  0  0  0  0  0  0  0
   11.8393   -3.2497   23.2035 H   0  0  0  0  0  0  0  0  0  0  0  0
   14.1788   -3.3106   23.3579 H   0  0  0  0  0  0  0  0  0  0  0  0
   14.1959   -5.0660   23.1572 H   0  0  0  0  0  0  0  0  0  0  0  0
   15.0177   -4.5828   21.0087 H   0  0  0  0  0  0  0  0  0  0  0  0
   14.2745   -2.9572   20.9830 H   0  0  0  0  0  0  0  0  0  0  0  0
  1  2  2  0
  2  3  1  0
  3  4  1  0
  4  5  1  0
  5  6  1  0
  6  7  1  0
  7  8  2  0
  8  9  1  0
  9 10  2  0
 10 11  1  0
 11 12  2  0
 12 13  1  0
 12 14  1  0
 14 15  2  0
  2 16  1  0
 16 17  2  0
 17 18  1  0
 18 19  1  0
 19 20  2  0
 20 21  1  0
 21 22  1  0
 22 23  1  0
 15  6  1  0
 20 16  1  0
 15  9  1  0
 23 19  1  0
  3 24  1  0
  4 25  1  0
  4 26  1  0
  5 27  1  0
  5 28  1  0
  7 29  1  0
  8 30  1  0
 10 31  1  0
 11 32  1  0
 14 33  1  0
 18 34  1  0
 21 35  1  0
 21 36  1  0
 22 37  1  0
 22 38  1  0
 23 39  1  0
 23 40  1  0
M  END
>  <Energy>  (773) 
546.50877609976328

>  <compound_id>  (773) 
46196

>  <target_id>  (773) 
1

>  <reference_id>  (773) 
122

>  <inspiration_ids>  (773) 
[40, 122]

>  <energy_score>  (773) 
453.1323463482575

>  <distance_score>  (773) 
6.093137719331096

>  <path>  (773) 
/opt/xchem-fragalysis-2/maxwin/BulkDock/SCRATCH/511020/C46196-P122/C46196-P122.minimised.mol

>  <scratch_subdir>  (773) 
/opt/xchem-fragalysis-2/maxwin/BulkDock/SCRATCH/511020/C46196-P122

>  <fragmenstein_runtime>  (773) 
12.705200672149658

>  <fragmenstein_outcome>  (773) 
too moved

>  <fragmenstein_mode>  (773) 
expansion

>  <fragmenstein_error>  (773) 


$$$$
C24475-P40
     RDKit          3D

 33 35  0  0  0  0  0  0  0  0999 V2000
    6.3589   -0.3615   20.5323 O   0  0  0  0  0  0  0  0  0  0  0  0
    7.2305   -0.9752   20.2650 C   0  0  0  0  0  0  0  0  0  0  0  0
    7.3197   -2.6298   21.2944 N   0  0  0  0  0  0  0  0  0  0  0  0
    6.2762   -3.2578   22.7127 C   0  0  0  0  0  0  0  0  0  0  0  0
    6.2865   -4.7993   23.8489 C   0  0  0  0  0  0  0  0  0  0  0  0
    5.2471   -5.2404   24.8617 N   0  0  0  0  0  0  0  0  0  0  0  0
    4.9584   -6.5970   24.9717 C   0  0  0  0  0  0  0  0  0  0  0  0
    4.0159   -6.8014   25.9399 C   0  0  0  0  0  0  0  0  0  0  0  0
    3.7831   -5.5562   26.5565 C   0  0  0  0  0  0  0  0  0  0  0  0
    2.9631   -5.1962   27.6444 C   0  0  0  0  0  0  0  0  0  0  0  0
    2.9647   -3.8819   28.0923 C   0  0  0  0  0  0  0  0  0  0  0  0
    1.9717   -3.4788   29.4452 Cl  0  0  0  0  0  0  0  0  0  0  0  0
    3.7618   -2.9290   27.4628 C   0  0  0  0  0  0  0  0  0  0  0  0
    4.5821   -3.2627   26.3606 C   0  0  0  0  0  0  0  0  0  0  0  0
    4.5834   -4.5909   25.9033 C   0  0  0  0  0  0  0  0  0  0  0  0
    8.2030   -0.0864   19.1407 C   0  0  0  0  0  0  0  0  0  0  0  0
    8.3822    1.3628   19.4168 C   0  0  0  0  0  0  0  0  0  0  0  0
    8.8639    2.1775   18.4763 N   0  0  0  0  0  0  0  0  0  0  0  0
    8.7770    1.4286   17.4083 N   0  0  0  0  0  0  0  0  0  0  0  0
    8.1465    0.2574   17.7295 C   0  0  0  0  0  0  0  0  0  0  0  0
    8.1626   -3.1002   21.0739 H   0  0  0  0  0  0  0  0  0  0  0  0
    6.0458   -2.5414   23.5324 H   0  0  0  0  0  0  0  0  0  0  0  0
    5.4278   -2.8682   22.1227 H   0  0  0  0  0  0  0  0  0  0  0  0
    7.0801   -4.8779   24.5914 H   0  0  0  0  0  0  0  0  0  0  0  0
    6.4651   -5.6735   23.2136 H   0  0  0  0  0  0  0  0  0  0  0  0
    5.4177   -7.3032   24.2980 H   0  0  0  0  0  0  0  0  0  0  0  0
    3.5804   -7.7587   26.1847 H   0  0  0  0  0  0  0  0  0  0  0  0
    2.3590   -5.9469   28.1407 H   0  0  0  0  0  0  0  0  0  0  0  0
    3.7601   -1.9003   27.8188 H   0  0  0  0  0  0  0  0  0  0  0  0
    5.2016   -2.5053   25.8874 H   0  0  0  0  0  0  0  0  0  0  0  0
    8.1173    1.9021   20.2892 H   0  0  0  0  0  0  0  0  0  0  0  0
    8.8939    1.8630   16.4974 H   0  0  0  0  0  0  0  0  0  0  0  0
    7.5734   -0.1111   16.8827 H   0  0  0  0  0  0  0  0  0  0  0  0
  1  2  2  0
  2  3  1  0
  3  4  1  0
  4  5  1  0
  5  6  1  0
  6  7  1  0
  7  8  2  0
  8  9  1  0
  9 10  2  0
 10 11  1  0
 11 12  1  0
 11 13  2  0
 13 14  1  0
 14 15  2  0
  2 16  1  0
 16 17  1  0
 17 18  2  0
 18 19  1  0
 19 20  1  0
 15  6  1  0
 20 16  2  0
 15  9  1  0
  3 21  1  0
  4 22  1  0
  4 23  1  0
  5 24  1  0
  5 25  1  0
  7 26  1  0
  8 27  1  0
 10 28  1  0
 13 29  1  0
 14 30  1  0
 17 31  1  0
 19 32  1  0
 20 33  1  0
M  END
>  <Energy>  (774) 
350.87241725886076

>  <compound_id>  (774) 
24475

>  <target_id>  (774) 
1

>  <reference_id>  (774) 
40

>  <inspiration_ids>  (774) 
[40, 122]

>  <energy_score>  (774) 
324.36745979722264

>  <distance_score>  (774) 
5.396802762239896

>  <path>  (774) 
/opt/xchem-fragalysis-2/maxwin/BulkDock/SCRATCH/511020/C24475-P40/C24475-P40.minimised.mol

>  <scratch_subdir>  (774) 
/opt/xchem-fragalysis-2/maxwin/BulkDock/SCRATCH/511020/C24475-P40

>  <fragmenstein_runtime>  (774) 
7.675213575363159

>  <fragmenstein_outcome>  (774) 
too moved

>  <fragmenstein_mode>  (774) 
expansion

>  <fragmenstein_error>  (774) 


$$$$
C24475-P122
     RDKit          3D

 33 35  0  0  0  0  0  0  0  0999 V2000
    7.2502    1.6034   19.7141 O   0  0  0  0  0  0  0  0  0  0  0  0
    7.3612    0.4265   19.4780 C   0  0  0  0  0  0  0  0  0  0  0  0
    6.8688   -0.8173   20.2940 N   0  0  0  0  0  0  0  0  0  0  0  0
    5.7502   -0.9449   21.8984 C   0  0  0  0  0  0  0  0  0  0  0  0
    5.0294   -1.8319   23.5613 C   0  0  0  0  0  0  0  0  0  0  0  0
    4.5921   -1.1704   25.1109 N   0  0  0  0  0  0  0  0  0  0  0  0
    3.4653   -0.4294   25.4225 C   0  0  0  0  0  0  0  0  0  0  0  0
    2.8522   -0.9620   26.5271 C   0  0  0  0  0  0  0  0  0  0  0  0
    3.8467   -1.6584   27.2057 C   0  0  0  0  0  0  0  0  0  0  0  0
    3.8605   -2.2375   28.4865 C   0  0  0  0  0  0  0  0  0  0  0  0
    5.0819   -2.5603   29.0514 C   0  0  0  0  0  0  0  0  0  0  0  0
    5.0882   -3.3658   30.5794 Cl  0  0  0  0  0  0  0  0  0  0  0  0
    6.2645   -2.2315   28.3893 C   0  0  0  0  0  0  0  0  0  0  0  0
    6.2606   -1.6784   27.0811 C   0  0  0  0  0  0  0  0  0  0  0  0
    5.0187   -1.5073   26.4328 C   0  0  0  0  0  0  0  0  0  0  0  0
    8.1079    0.2033   17.8211 C   0  0  0  0  0  0  0  0  0  0  0  0
    7.8712   -0.4545   16.5540 C   0  0  0  0  0  0  0  0  0  0  0  0
    8.9192   -0.4484   15.7282 N   0  0  0  0  0  0  0  0  0  0  0  0
    9.4665    0.7087   16.0423 N   0  0  0  0  0  0  0  0  0  0  0  0
    8.8980    1.2085   17.1792 C   0  0  0  0  0  0  0  0  0  0  0  0
    7.0424   -1.6266   19.7854 H   0  0  0  0  0  0  0  0  0  0  0  0
    5.5473   -1.9517   21.5250 H   0  0  0  0  0  0  0  0  0  0  0  0
    5.0689   -0.1035   21.7575 H   0  0  0  0  0  0  0  0  0  0  0  0
    5.7928   -2.4224   24.0336 H   0  0  0  0  0  0  0  0  0  0  0  0
    4.0419   -2.2673   23.4102 H   0  0  0  0  0  0  0  0  0  0  0  0
    3.1469    0.4107   24.8408 H   0  0  0  0  0  0  0  0  0  0  0  0
    1.8794   -0.7012   26.9157 H   0  0  0  0  0  0  0  0  0  0  0  0
    2.9335   -2.3734   29.0326 H   0  0  0  0  0  0  0  0  0  0  0  0
    7.2234   -2.4521   28.8509 H   0  0  0  0  0  0  0  0  0  0  0  0
    7.1932   -1.5205   26.5512 H   0  0  0  0  0  0  0  0  0  0  0  0
    7.0502   -1.0590   16.2231 H   0  0  0  0  0  0  0  0  0  0  0  0
   10.1541    1.1223   15.4186 H   0  0  0  0  0  0  0  0  0  0  0  0
    9.1526    2.2181   17.4343 H   0  0  0  0  0  0  0  0  0  0  0  0
  1  2  2  0
  2  3  1  0
  3  4  1  0
  4  5  1  0
  5  6  1  0
  6  7  1  0
  7  8  2  0
  8  9  1  0
  9 10  2  0
 10 11  1  0
 11 12  1  0
 11 13  2  0
 13 14  1  0
 14 15  2  0
  2 16  1  0
 16 17  1  0
 17 18  2  0
 18 19  1  0
 19 20  1  0
 15  6  1  0
 20 16  2  0
 15  9  1  0
  3 21  1  0
  4 22  1  0
  4 23  1  0
  5 24  1  0
  5 25  1  0
  7 26  1  0
  8 27  1  0
 10 28  1  0
 13 29  1  0
 14 30  1  0
 17 31  1  0
 19 32  1  0
 20 33  1  0
M  END
>  <Energy>  (775) 
334.76102659774108

>  <compound_id>  (775) 
24475

>  <target_id>  (775) 
1

>  <reference_id>  (775) 
122

>  <inspiration_ids>  (775) 
[40, 122]

>  <energy_score>  (775) 
308.256069136105

>  <distance_score>  (775) 
5.863376875364725

>  <path>  (775) 
/opt/xchem-fragalysis-2/maxwin/BulkDock/SCRATCH/511020/C24475-P122/C24475-P122.minimised.mol

>  <scratch_subdir>  (775) 
/opt/xchem-fragalysis-2/maxwin/BulkDock/SCRATCH/511020/C24475-P122

>  <fragmenstein_runtime>  (775) 
7.128835439682007

>  <fragmenstein_outcome>  (775) 
too moved

>  <fragmenstein_mode>  (775) 
expansion

>  <fragmenstein_error>  (775) 


$$$$
C30255-P40
     RDKit          3D

 33 35  0  0  0  0  0  0  0  0999 V2000
    5.5448   -0.8595   21.1180 O   0  0  0  0  0  0  0  0  0  0  0  0
    6.4739   -1.4173   20.6486 C   0  0  0  0  0  0  0  0  0  0  0  0
    6.9715   -2.9752   21.4908 N   0  0  0  0  0  0  0  0  0  0  0  0
    6.3848   -3.7402   22.9833 C   0  0  0  0  0  0  0  0  0  0  0  0
    6.2291   -5.2522   23.8562 C   0  0  0  0  0  0  0  0  0  0  0  0
    6.2322   -5.3501   25.3451 N   0  0  0  0  0  0  0  0  0  0  0  0
    6.9960   -6.3301   25.9627 C   0  0  0  0  0  0  0  0  0  0  0  0
    6.3871   -6.7198   27.1293 C   0  0  0  0  0  0  0  0  0  0  0  0
    5.2345   -5.9226   27.3002 C   0  0  0  0  0  0  0  0  0  0  0  0
    4.2311   -5.9049   28.2944 C   0  0  0  0  0  0  0  0  0  0  0  0
    3.2253   -4.9472   28.2411 C   0  0  0  0  0  0  0  0  0  0  0  0
    1.9718   -4.9686   29.4300 Cl  0  0  0  0  0  0  0  0  0  0  0  0
    3.2360   -3.9888   27.2356 C   0  0  0  0  0  0  0  0  0  0  0  0
    4.2001   -4.0169   26.2049 C   0  0  0  0  0  0  0  0  0  0  0  0
    5.1900   -5.0147   26.2279 C   0  0  0  0  0  0  0  0  0  0  0  0
    7.2077   -0.3905   19.3133 C   0  0  0  0  0  0  0  0  0  0  0  0
    6.6707    0.1803   18.0217 C   0  0  0  0  0  0  0  0  0  0  0  0
    7.5271    1.1451   17.5724 C   0  0  0  0  0  0  0  0  0  0  0  0
    8.3887    1.2814   18.5952 N   0  0  0  0  0  0  0  0  0  0  0  0
    8.3933    0.2393   19.4611 N   0  0  0  0  0  0  0  0  0  0  0  0
    7.7021   -3.3951   20.9590 H   0  0  0  0  0  0  0  0  0  0  0  0
    5.6884   -2.9340   22.7507 H   0  0  0  0  0  0  0  0  0  0  0  0
    6.1059   -3.0885   23.8783 H   0  0  0  0  0  0  0  0  0  0  0  0
    6.8573   -6.0241   23.4414 H   0  0  0  0  0  0  0  0  0  0  0  0
    5.3135   -5.8236   23.7227 H   0  0  0  0  0  0  0  0  0  0  0  0
    7.8663   -6.7422   25.4752 H   0  0  0  0  0  0  0  0  0  0  0  0
    6.7342   -7.5114   27.7803 H   0  0  0  0  0  0  0  0  0  0  0  0
    4.2744   -6.6266   29.0999 H   0  0  0  0  0  0  0  0  0  0  0  0
    2.4964   -3.1918   27.2460 H   0  0  0  0  0  0  0  0  0  0  0  0
    4.2044   -3.2553   25.4335 H   0  0  0  0  0  0  0  0  0  0  0  0
    5.7865   -0.1601   17.5005 H   0  0  0  0  0  0  0  0  0  0  0  0
    7.5180    1.7959   16.7095 H   0  0  0  0  0  0  0  0  0  0  0  0
    9.0603    2.0347   18.7199 H   0  0  0  0  0  0  0  0  0  0  0  0
  1  2  2  0
  2  3  1  0
  3  4  1  0
  4  5  1  0
  5  6  1  0
  6  7  1  0
  7  8  2  0
  8  9  1  0
  9 10  2  0
 10 11  1  0
 11 12  1  0
 11 13  2  0
 13 14  1  0
 14 15  2  0
  2 16  1  0
 16 17  1  0
 17 18  2  0
 18 19  1  0
 19 20  1  0
 15  6  1  0
 20 16  2  0
 15  9  1  0
  3 21  1  0
  4 22  1  0
  4 23  1  0
  5 24  1  0
  5 25  1  0
  7 26  1  0
  8 27  1  0
 10 28  1  0
 13 29  1  0
 14 30  1  0
 17 31  1  0
 18 32  1  0
 19 33  1  0
M  END
>  <Energy>  (776) 
325.95956381155435

>  <compound_id>  (776) 
30255

>  <target_id>  (776) 
1

>  <reference_id>  (776) 
40

>  <inspiration_ids>  (776) 
[40, 122]

>  <energy_score>  (776) 
264.1135638914062

>  <distance_score>  (776) 
5.804828674567343

>  <path>  (776) 
/opt/xchem-fragalysis-2/maxwin/BulkDock/SCRATCH/511020/C30255-P40/C30255-P40.minimised.mol

>  <scratch_subdir>  (776) 
/opt/xchem-fragalysis-2/maxwin/BulkDock/SCRATCH/511020/C30255-P40

>  <fragmenstein_runtime>  (776) 
11.190994024276733

>  <fragmenstein_outcome>  (776) 
too moved

>  <fragmenstein_mode>  (776) 
expansion

>  <fragmenstein_error>  (776) 


$$$$
C30255-P122
     RDKit          3D

 33 35  0  0  0  0  0  0  0  0999 V2000
    6.0255   -0.8459   17.9796 O   0  0  0  0  0  0  0  0  0  0  0  0
    6.9549   -0.4954   18.6999 C   0  0  0  0  0  0  0  0  0  0  0  0
    7.0875   -0.6243   20.3589 N   0  0  0  0  0  0  0  0  0  0  0  0
    5.7829   -1.2334   21.7122 C   0  0  0  0  0  0  0  0  0  0  0  0
    5.2983   -1.9147   23.5259 C   0  0  0  0  0  0  0  0  0  0  0  0
    4.7751   -1.4181   25.0016 N   0  0  0  0  0  0  0  0  0  0  0  0
    3.4292   -1.4922   25.2429 C   0  0  0  0  0  0  0  0  0  0  0  0
    3.0662   -1.4455   26.5477 C   0  0  0  0  0  0  0  0  0  0  0  0
    4.2548   -1.5196   27.2539 C   0  0  0  0  0  0  0  0  0  0  0  0
    4.4550   -1.7766   28.6216 C   0  0  0  0  0  0  0  0  0  0  0  0
    5.7383   -1.9691   29.0860 C   0  0  0  0  0  0  0  0  0  0  0  0
    5.9374   -2.5179   30.7091 Cl  0  0  0  0  0  0  0  0  0  0  0  0
    6.8181   -1.7814   28.2310 C   0  0  0  0  0  0  0  0  0  0  0  0
    6.6391   -1.4760   26.8578 C   0  0  0  0  0  0  0  0  0  0  0  0
    5.3285   -1.4092   26.3271 C   0  0  0  0  0  0  0  0  0  0  0  0
    8.1622    0.2358   17.7542 C   0  0  0  0  0  0  0  0  0  0  0  0
    8.4508    1.6236   17.4544 C   0  0  0  0  0  0  0  0  0  0  0  0
    9.2636    1.6403   16.3443 C   0  0  0  0  0  0  0  0  0  0  0  0
    9.3523    0.3487   15.9418 N   0  0  0  0  0  0  0  0  0  0  0  0
    8.8293   -0.5107   16.8254 N   0  0  0  0  0  0  0  0  0  0  0  0
    8.0019   -0.3234   20.6421 H   0  0  0  0  0  0  0  0  0  0  0  0
    5.1355   -0.3534   21.7269 H   0  0  0  0  0  0  0  0  0  0  0  0
    5.6289   -2.2345   21.2748 H   0  0  0  0  0  0  0  0  0  0  0  0
    5.9864   -2.6213   23.9459 H   0  0  0  0  0  0  0  0  0  0  0  0
    4.3110   -2.2895   23.2852 H   0  0  0  0  0  0  0  0  0  0  0  0
    2.8227   -1.6614   24.3961 H   0  0  0  0  0  0  0  0  0  0  0  0
    2.0600   -1.5310   26.9312 H   0  0  0  0  0  0  0  0  0  0  0  0
    3.5982   -1.9106   29.2740 H   0  0  0  0  0  0  0  0  0  0  0  0
    7.8303   -1.9312   28.5981 H   0  0  0  0  0  0  0  0  0  0  0  0
    7.5080   -1.4585   26.2094 H   0  0  0  0  0  0  0  0  0  0  0  0
    8.0452    2.4894   17.9586 H   0  0  0  0  0  0  0  0  0  0  0  0
    9.6888    2.4485   15.7691 H   0  0  0  0  0  0  0  0  0  0  0  0
    9.7547   -0.0256   15.0840 H   0  0  0  0  0  0  0  0  0  0  0  0
  1  2  2  0
  2  3  1  0
  3  4  1  0
  4  5  1  0
  5  6  1  0
  6  7  1  0
  7  8  2  0
  8  9  1  0
  9 10  2  0
 10 11  1  0
 11 12  1  0
 11 13  2  0
 13 14  1  0
 14 15  2  0
  2 16  1  0
 16 17  1  0
 17 18  2  0
 18 19  1  0
 19 20  1  0
 15  6  1  0
 20 16  2  0
 15  9  1  0
  3 21  1  0
  4 22  1  0
  4 23  1  0
  5 24  1  0
  5 25  1  0
  7 26  1  0
  8 27  1  0
 10 28  1  0
 13 29  1  0
 14 30  1  0
 17 31  1  0
 18 32  1  0
 19 33  1  0
M  END
>  <Energy>  (777) 
333.99665909139839

>  <compound_id>  (777) 
30255

>  <target_id>  (777) 
1

>  <reference_id>  (777) 
122

>  <inspiration_ids>  (777) 
[40, 122]

>  <energy_score>  (777) 
272.1506591712548

>  <distance_score>  (777) 
6.233253410504217

>  <path>  (777) 
/opt/xchem-fragalysis-2/maxwin/BulkDock/SCRATCH/511020/C30255-P122/C30255-P122.minimised.mol

>  <scratch_subdir>  (777) 
/opt/xchem-fragalysis-2/maxwin/BulkDock/SCRATCH/511020/C30255-P122

>  <fragmenstein_runtime>  (777) 
7.236879348754883

>  <fragmenstein_outcome>  (777) 
too moved

>  <fragmenstein_mode>  (777) 
expansion

>  <fragmenstein_error>  (777) 


$$$$
C46197-P40
     RDKit          3D

 50 53  0  0  0  0  0  0  0  0999 V2000
    2.0650   -6.1164   28.5807 C   0  0  0  0  0  0  0  0  0  0  0  0
    3.0921   -6.5953   27.7180 O   0  0  0  0  0  0  0  0  0  0  0  0
    3.8784   -5.6149   27.1457 C   0  0  0  0  0  0  0  0  0  0  0  0
    3.9608   -4.3131   27.6597 C   0  0  0  0  0  0  0  0  0  0  0  0
    4.6885   -3.3375   26.9964 C   0  0  0  0  0  0  0  0  0  0  0  0
    5.3686   -3.6268   25.8099 C   0  0  0  0  0  0  0  0  0  0  0  0
    5.3562   -4.9380   25.2909 C   0  0  0  0  0  0  0  0  0  0  0  0
    4.6177   -5.9350   25.9680 C   0  0  0  0  0  0  0  0  0  0  0  0
    4.7458   -7.1093   25.1915 C   0  0  0  0  0  0  0  0  0  0  0  0
    5.4543   -6.7775   24.0650 C   0  0  0  0  0  0  0  0  0  0  0  0
    5.9031   -5.5059   24.0726 N   0  0  0  0  0  0  0  0  0  0  0  0
    6.7543   -4.7500   22.9936 C   0  0  0  0  0  0  0  0  0  0  0  0
    7.6949   -4.3198   21.2196 C   0  0  0  0  0  0  0  0  0  0  0  0
    9.5952   -4.7048   20.7412 N   0  0  0  0  0  0  0  0  0  0  0  0
   11.0719   -4.3549   21.5764 C   0  0  0  0  0  0  0  0  0  0  0  0
   11.2416   -3.7309   22.6140 O   0  0  0  0  0  0  0  0  0  0  0  0
   12.3372   -4.7834   20.9221 C   0  0  0  0  0  0  0  0  0  0  0  0
   12.7091   -4.4483   19.6472 N   0  0  0  0  0  0  0  0  0  0  0  0
   13.9992   -4.5594   19.3615 N   0  0  0  0  0  0  0  0  0  0  0  0
   14.5010   -5.1203   20.4583 C   0  0  0  0  0  0  0  0  0  0  0  0
   13.5189   -5.2599   21.4839 C   0  0  0  0  0  0  0  0  0  0  0  0
   13.7115   -5.7543   22.8788 C   0  0  0  0  0  0  0  0  0  0  0  0
   15.0921   -6.3402   23.1955 C   0  0  0  0  0  0  0  0  0  0  0  0
   15.5444   -7.4151   22.2048 C   0  0  0  0  0  0  0  0  0  0  0  0
   16.2162   -6.9058   20.9188 C   0  0  0  0  0  0  0  0  0  0  0  0
   15.9435   -5.4569   20.5118 C   0  0  0  0  0  0  0  0  0  0  0  0
    1.4848   -5.3105   28.1189 H   0  0  0  0  0  0  0  0  0  0  0  0
    2.4820   -5.7999   29.5418 H   0  0  0  0  0  0  0  0  0  0  0  0
    1.3767   -6.9445   28.7746 H   0  0  0  0  0  0  0  0  0  0  0  0
    3.4618   -4.0208   28.5768 H   0  0  0  0  0  0  0  0  0  0  0  0
    4.7290   -2.3253   27.3933 H   0  0  0  0  0  0  0  0  0  0  0  0
    5.8857   -2.8212   25.3026 H   0  0  0  0  0  0  0  0  0  0  0  0
    4.2619   -8.0620   25.3567 H   0  0  0  0  0  0  0  0  0  0  0  0
    5.5377   -7.2639   23.1352 H   0  0  0  0  0  0  0  0  0  0  0  0
    6.2867   -3.7526   23.0928 H   0  0  0  0  0  0  0  0  0  0  0  0
    7.3209   -4.7921   23.8504 H   0  0  0  0  0  0  0  0  0  0  0  0
    7.1837   -4.5711   20.2498 H   0  0  0  0  0  0  0  0  0  0  0  0
    7.5568   -3.2454   21.2810 H   0  0  0  0  0  0  0  0  0  0  0  0
    9.7992   -5.1698   19.8708 H   0  0  0  0  0  0  0  0  0  0  0  0
   12.1046   -4.0370   18.9507 H   0  0  0  0  0  0  0  0  0  0  0  0
   13.5163   -4.9348   23.5811 H   0  0  0  0  0  0  0  0  0  0  0  0
   12.9533   -6.5235   23.0769 H   0  0  0  0  0  0  0  0  0  0  0  0
   15.0328   -6.7933   24.1936 H   0  0  0  0  0  0  0  0  0  0  0  0
   15.8433   -5.5459   23.2736 H   0  0  0  0  0  0  0  0  0  0  0  0
   14.6892   -8.0500   21.9394 H   0  0  0  0  0  0  0  0  0  0  0  0
   16.2564   -8.0806   22.7095 H   0  0  0  0  0  0  0  0  0  0  0  0
   15.9323   -7.5759   20.0967 H   0  0  0  0  0  0  0  0  0  0  0  0
   17.3026   -7.0192   21.0291 H   0  0  0  0  0  0  0  0  0  0  0  0
   16.4112   -5.2820   19.5342 H   0  0  0  0  0  0  0  0  0  0  0  0
   16.4447   -4.7725   21.2069 H   0  0  0  0  0  0  0  0  0  0  0  0
  1  2  1  0
  2  3  1  0
  3  4  2  0
  4  5  1  0
  5  6  2  0
  6  7  1  0
  7  8  2  0
  8  9  1  0
  9 10  2  0
 10 11  1  0
 11 12  1  0
 12 13  1  0
 13 14  1  0
 14 15  1  0
 15 16  2  0
 15 17  1  0
 17 18  1  0
 18 19  1  0
 19 20  2  0
 20 21  1  0
 21 22  1  0
 22 23  1  0
 23 24  1  0
 24 25  1  0
 25 26  1  0
  8  3  1  0
 21 17  2  0
 11  7  1  0
 26 20  1  0
  1 27  1  0
  1 28  1  0
  1 29  1  0
  4 30  1  0
  5 31  1  0
  6 32  1  0
  9 33  1  0
 10 34  1  0
 12 35  1  0
 12 36  1  0
 13 37  1  0
 13 38  1  0
 14 39  1  0
 18 40  1  0
 22 41  1  0
 22 42  1  0
 23 43  1  0
 23 44  1  0
 24 45  1  0
 24 46  1  0
 25 47  1  0
 25 48  1  0
 26 49  1  0
 26 50  1  0
M  END
>  <Energy>  (778) 
296.78491690039721

>  <compound_id>  (778) 
46197

>  <target_id>  (778) 
1

>  <reference_id>  (778) 
40

>  <inspiration_ids>  (778) 
[40, 122]

>  <energy_score>  (778) 
238.55649412180622

>  <distance_score>  (778) 
5.7370071339667215

>  <path>  (778) 
/opt/xchem-fragalysis-2/maxwin/BulkDock/SCRATCH/511020/C46197-P40/C46197-P40.minimised.mol

>  <scratch_subdir>  (778) 
/opt/xchem-fragalysis-2/maxwin/BulkDock/SCRATCH/511020/C46197-P40

>  <fragmenstein_runtime>  (778) 
15.468485832214355

>  <fragmenstein_outcome>  (778) 
too moved

>  <fragmenstein_mode>  (778) 
expansion

>  <fragmenstein_error>  (778) 


$$$$
C46197-P122
     RDKit          3D

 50 53  0  0  0  0  0  0  0  0999 V2000
    3.2204   -1.4238   28.4784 C   0  0  0  0  0  0  0  0  0  0  0  0
    4.2662   -0.4597   28.3753 O   0  0  0  0  0  0  0  0  0  0  0  0
    5.3398   -0.9419   27.6405 C   0  0  0  0  0  0  0  0  0  0  0  0
    6.5706   -0.9185   28.2939 C   0  0  0  0  0  0  0  0  0  0  0  0
    7.7142   -1.3805   27.6524 C   0  0  0  0  0  0  0  0  0  0  0  0
    7.6742   -1.8667   26.3377 C   0  0  0  0  0  0  0  0  0  0  0  0
    6.4304   -1.8648   25.6457 C   0  0  0  0  0  0  0  0  0  0  0  0
    5.2544   -1.4022   26.3034 C   0  0  0  0  0  0  0  0  0  0  0  0
    4.1835   -1.5617   25.4136 C   0  0  0  0  0  0  0  0  0  0  0  0
    4.5915   -2.2146   24.2749 C   0  0  0  0  0  0  0  0  0  0  0  0
    5.9713   -2.6168   24.2764 N   0  0  0  0  0  0  0  0  0  0  0  0
    7.0207   -3.9131   23.2221 C   0  0  0  0  0  0  0  0  0  0  0  0
    7.9632   -4.3428   21.3821 C   0  0  0  0  0  0  0  0  0  0  0  0
    9.6197   -4.9588   20.4104 N   0  0  0  0  0  0  0  0  0  0  0  0
   11.4230   -4.7389   20.8378 C   0  0  0  0  0  0  0  0  0  0  0  0
   11.8531   -4.2362   21.8652 O   0  0  0  0  0  0  0  0  0  0  0  0
   12.5691   -5.0443   19.9000 C   0  0  0  0  0  0  0  0  0  0  0  0
   12.6900   -4.5530   18.6190 N   0  0  0  0  0  0  0  0  0  0  0  0
   13.9103   -4.5674   18.0878 N   0  0  0  0  0  0  0  0  0  0  0  0
   14.6882   -4.8718   19.1249 C   0  0  0  0  0  0  0  0  0  0  0  0
   13.9142   -5.2534   20.2629 C   0  0  0  0  0  0  0  0  0  0  0  0
   14.4676   -5.6974   21.5855 C   0  0  0  0  0  0  0  0  0  0  0  0
   15.7491   -4.9621   21.9771 C   0  0  0  0  0  0  0  0  0  0  0  0
   17.0162   -5.4923   21.2972 C   0  0  0  0  0  0  0  0  0  0  0  0
   16.9108   -5.8432   19.8097 C   0  0  0  0  0  0  0  0  0  0  0  0
   16.1701   -4.8067   18.9678 C   0  0  0  0  0  0  0  0  0  0  0  0
    3.5794   -2.4581   28.4225 H   0  0  0  0  0  0  0  0  0  0  0  0
    2.4593   -1.2372   27.7162 H   0  0  0  0  0  0  0  0  0  0  0  0
    2.7448   -1.2919   29.4554 H   0  0  0  0  0  0  0  0  0  0  0  0
    6.6314   -0.5479   29.3123 H   0  0  0  0  0  0  0  0  0  0  0  0
    8.6620   -1.3819   28.1848 H   0  0  0  0  0  0  0  0  0  0  0  0
    8.5667   -2.2859   25.8921 H   0  0  0  0  0  0  0  0  0  0  0  0
    3.1637   -1.2478   25.5735 H   0  0  0  0  0  0  0  0  0  0  0  0
    3.9171   -2.4445   23.4762 H   0  0  0  0  0  0  0  0  0  0  0  0
    6.4260   -3.3384   22.5627 H   0  0  0  0  0  0  0  0  0  0  0  0
    7.6563   -3.7256   24.0120 H   0  0  0  0  0  0  0  0  0  0  0  0
    7.8074   -5.2379   21.9936 H   0  0  0  0  0  0  0  0  0  0  0  0
    8.1013   -3.3275   21.3177 H   0  0  0  0  0  0  0  0  0  0  0  0
    9.5397   -5.4672   19.5555 H   0  0  0  0  0  0  0  0  0  0  0  0
   11.9408   -4.1645   18.0663 H   0  0  0  0  0  0  0  0  0  0  0  0
   13.7330   -5.5440   22.3808 H   0  0  0  0  0  0  0  0  0  0  0  0
   14.6479   -6.7790   21.5507 H   0  0  0  0  0  0  0  0  0  0  0  0
   15.8927   -5.0543   23.0611 H   0  0  0  0  0  0  0  0  0  0  0  0
   15.6452   -3.8879   21.7762 H   0  0  0  0  0  0  0  0  0  0  0  0
   17.3549   -6.3896   21.8307 H   0  0  0  0  0  0  0  0  0  0  0  0
   17.8101   -4.7467   21.4324 H   0  0  0  0  0  0  0  0  0  0  0  0
   16.4383   -6.8276   19.6967 H   0  0  0  0  0  0  0  0  0  0  0  0
   17.9310   -5.9508   19.4201 H   0  0  0  0  0  0  0  0  0  0  0  0
   16.4231   -4.9820   17.9140 H   0  0  0  0  0  0  0  0  0  0  0  0
   16.5205   -3.7968   19.2120 H   0  0  0  0  0  0  0  0  0  0  0  0
  1  2  1  0
  2  3  1  0
  3  4  2  0
  4  5  1  0
  5  6  2  0
  6  7  1  0
  7  8  2  0
  8  9  1  0
  9 10  2  0
 10 11  1  0
 11 12  1  0
 12 13  1  0
 13 14  1  0
 14 15  1  0
 15 16  2  0
 15 17  1  0
 17 18  1  0
 18 19  1  0
 19 20  2  0
 20 21  1  0
 21 22  1  0
 22 23  1  0
 23 24  1  0
 24 25  1  0
 25 26  1  0
  8  3  1  0
 21 17  2  0
 11  7  1  0
 26 20  1  0
  1 27  1  0
  1 28  1  0
  1 29  1  0
  4 30  1  0
  5 31  1  0
  6 32  1  0
  9 33  1  0
 10 34  1  0
 12 35  1  0
 12 36  1  0
 13 37  1  0
 13 38  1  0
 14 39  1  0
 18 40  1  0
 22 41  1  0
 22 42  1  0
 23 43  1  0
 23 44  1  0
 24 45  1  0
 24 46  1  0
 25 47  1  0
 25 48  1  0
 26 49  1  0
 26 50  1  0
M  END
>  <Energy>  (779) 
507.72390025286541

>  <compound_id>  (779) 
46197

>  <target_id>  (779) 
1

>  <reference_id>  (779) 
122

>  <inspiration_ids>  (779) 
[40, 122]

>  <energy_score>  (779) 
449.495477474263

>  <distance_score>  (779) 
6.944646020572247

>  <path>  (779) 
/opt/xchem-fragalysis-2/maxwin/BulkDock/SCRATCH/511020/C46197-P122/C46197-P122.minimised.mol

>  <scratch_subdir>  (779) 
/opt/xchem-fragalysis-2/maxwin/BulkDock/SCRATCH/511020/C46197-P122

>  <fragmenstein_runtime>  (779) 
17.197942972183228

>  <fragmenstein_outcome>  (779) 
too moved

>  <fragmenstein_mode>  (779) 
expansion

>  <fragmenstein_error>  (779) 


$$$$
C46198-P40
     RDKit          3D

 44 47  0  0  0  0  0  0  0  0999 V2000
    0.5820   -5.7452   30.1662 C   0  0  0  0  0  0  0  0  0  0  0  0
    1.3189   -6.1466   29.0152 O   0  0  0  0  0  0  0  0  0  0  0  0
    2.1044   -5.1801   28.4319 C   0  0  0  0  0  0  0  0  0  0  0  0
    2.0565   -3.8163   28.7424 C   0  0  0  0  0  0  0  0  0  0  0  0
    2.9005   -2.9079   28.1028 C   0  0  0  0  0  0  0  0  0  0  0  0
    3.8134   -3.3168   27.1232 C   0  0  0  0  0  0  0  0  0  0  0  0
    3.8530   -4.6750   26.7829 C   0  0  0  0  0  0  0  0  0  0  0  0
    3.0180   -5.5997   27.4320 C   0  0  0  0  0  0  0  0  0  0  0  0
    3.3243   -6.8664   26.8856 C   0  0  0  0  0  0  0  0  0  0  0  0
    4.3151   -6.7113   25.9541 C   0  0  0  0  0  0  0  0  0  0  0  0
    4.6263   -5.3749   25.8579 N   0  0  0  0  0  0  0  0  0  0  0  0
    5.6798   -4.8207   24.9636 C   0  0  0  0  0  0  0  0  0  0  0  0
    5.8291   -5.6011   23.5683 C   0  0  0  0  0  0  0  0  0  0  0  0
    7.0328   -5.7312   22.7847 N   0  0  0  0  0  0  0  0  0  0  0  0
    7.8416   -4.5922   21.4458 C   0  0  0  0  0  0  0  0  0  0  0  0
    7.4449   -3.6050   20.9467 O   0  0  0  0  0  0  0  0  0  0  0  0
    9.8319   -5.0440   20.9078 C   0  0  0  0  0  0  0  0  0  0  0  0
   11.0787   -4.1885   21.8224 N   0  0  0  0  0  0  0  0  0  0  0  0
   11.8932   -5.0619   22.4884 N   0  0  0  0  0  0  0  0  0  0  0  0
   12.2765   -5.7736   21.4589 C   0  0  0  0  0  0  0  0  0  0  0  0
   11.3893   -5.3325   20.3983 C   0  0  0  0  0  0  0  0  0  0  0  0
   12.5547   -4.5607   19.4598 C   0  0  0  0  0  0  0  0  0  0  0  0
   13.9351   -5.1098   19.8755 C   0  0  0  0  0  0  0  0  0  0  0  0
   13.7597   -5.7854   21.2279 C   0  0  0  0  0  0  0  0  0  0  0  0
    1.2438   -5.3558   30.9470 H   0  0  0  0  0  0  0  0  0  0  0  0
   -0.1938   -5.0197   29.9026 H   0  0  0  0  0  0  0  0  0  0  0  0
    0.0818   -6.6329   30.5657 H   0  0  0  0  0  0  0  0  0  0  0  0
    1.3661   -3.4182   29.4788 H   0  0  0  0  0  0  0  0  0  0  0  0
    2.8453   -1.8518   28.3626 H   0  0  0  0  0  0  0  0  0  0  0  0
    4.4620   -2.5905   26.6412 H   0  0  0  0  0  0  0  0  0  0  0  0
    2.8734   -7.8077   27.1433 H   0  0  0  0  0  0  0  0  0  0  0  0
    4.8073   -7.4653   25.3513 H   0  0  0  0  0  0  0  0  0  0  0  0
    5.4598   -3.7597   24.8352 H   0  0  0  0  0  0  0  0  0  0  0  0
    6.5997   -4.9106   25.5569 H   0  0  0  0  0  0  0  0  0  0  0  0
    5.0991   -6.3958   23.3548 H   0  0  0  0  0  0  0  0  0  0  0  0
    6.2513   -6.4251   24.1933 H   0  0  0  0  0  0  0  0  0  0  0  0
    7.5633   -6.5538   22.9625 H   0  0  0  0  0  0  0  0  0  0  0  0
   10.8148   -3.3621   22.3440 H   0  0  0  0  0  0  0  0  0  0  0  0
   12.3732   -4.5724   18.3835 H   0  0  0  0  0  0  0  0  0  0  0  0
   12.6137   -3.5082   19.7647 H   0  0  0  0  0  0  0  0  0  0  0  0
   14.6751   -4.3021   19.9277 H   0  0  0  0  0  0  0  0  0  0  0  0
   14.3307   -5.8140   19.1544 H   0  0  0  0  0  0  0  0  0  0  0  0
   14.1823   -6.7922   21.2708 H   0  0  0  0  0  0  0  0  0  0  0  0
   14.2858   -5.2028   21.9955 H   0  0  0  0  0  0  0  0  0  0  0  0
  1  2  1  0
  2  3  1  0
  3  4  2  0
  4  5  1  0
  5  6  2  0
  6  7  1  0
  7  8  2  0
  8  9  1  0
  9 10  2  0
 10 11  1  0
 11 12  1  0
 12 13  1  0
 13 14  1  0
 14 15  1  0
 15 16  2  0
 15 17  1  0
 17 18  1  0
 18 19  1  0
 19 20  2  0
 20 21  1  0
 21 22  1  0
 22 23  1  0
 23 24  1  0
  8  3  1  0
 21 17  2  0
 11  7  1  0
 24 20  1  0
  1 25  1  0
  1 26  1  0
  1 27  1  0
  4 28  1  0
  5 29  1  0
  6 30  1  0
  9 31  1  0
 10 32  1  0
 12 33  1  0
 12 34  1  0
 13 35  1  0
 13 36  1  0
 14 37  1  0
 18 38  1  0
 22 39  1  0
 22 40  1  0
 23 41  1  0
 23 42  1  0
 24 43  1  0
 24 44  1  0
M  END
>  <Energy>  (780) 
513.95666624584373

>  <compound_id>  (780) 
46198

>  <target_id>  (780) 
1

>  <reference_id>  (780) 
40

>  <inspiration_ids>  (780) 
[40, 122]

>  <energy_score>  (780) 
464.65484609333294

>  <distance_score>  (780) 
5.070904113903393

>  <path>  (780) 
/opt/xchem-fragalysis-2/maxwin/BulkDock/SCRATCH/511020/C46198-P40/C46198-P40.minimised.mol

>  <scratch_subdir>  (780) 
/opt/xchem-fragalysis-2/maxwin/BulkDock/SCRATCH/511020/C46198-P40

>  <fragmenstein_runtime>  (780) 
11.460704565048218

>  <fragmenstein_outcome>  (780) 
too moved

>  <fragmenstein_mode>  (780) 
expansion

>  <fragmenstein_error>  (780) 


$$$$
C46198-P122
     RDKit          3D

 44 47  0  0  0  0  0  0  0  0999 V2000
    3.2904   -2.1166   29.3832 C   0  0  0  0  0  0  0  0  0  0  0  0
    3.6770   -0.8708   28.8051 O   0  0  0  0  0  0  0  0  0  0  0  0
    4.7369   -1.0712   27.9362 C   0  0  0  0  0  0  0  0  0  0  0  0
    6.0122   -0.8893   28.4419 C   0  0  0  0  0  0  0  0  0  0  0  0
    7.0898   -1.1433   27.6202 C   0  0  0  0  0  0  0  0  0  0  0  0
    6.9117   -1.5160   26.2741 C   0  0  0  0  0  0  0  0  0  0  0  0
    5.6055   -1.6021   25.6598 C   0  0  0  0  0  0  0  0  0  0  0  0
    4.5313   -1.4387   26.5821 C   0  0  0  0  0  0  0  0  0  0  0  0
    3.3710   -1.8155   25.9337 C   0  0  0  0  0  0  0  0  0  0  0  0
    3.7091   -2.2650   24.6941 C   0  0  0  0  0  0  0  0  0  0  0  0
    5.0617   -2.0668   24.3543 N   0  0  0  0  0  0  0  0  0  0  0  0
    5.4678   -2.1366   22.6069 C   0  0  0  0  0  0  0  0  0  0  0  0
    5.7861   -3.2041   20.8824 C   0  0  0  0  0  0  0  0  0  0  0  0
    7.1513   -4.5060   20.1064 N   0  0  0  0  0  0  0  0  0  0  0  0
    8.7391   -4.4537   20.0170 C   0  0  0  0  0  0  0  0  0  0  0  0
    9.1564   -3.5068   20.4083 O   0  0  0  0  0  0  0  0  0  0  0  0
   10.1877   -5.5354   19.3170 C   0  0  0  0  0  0  0  0  0  0  0  0
   11.5612   -5.3640   20.3280 N   0  0  0  0  0  0  0  0  0  0  0  0
   12.8313   -5.3048   19.8487 N   0  0  0  0  0  0  0  0  0  0  0  0
   12.7129   -4.6690   18.7102 C   0  0  0  0  0  0  0  0  0  0  0  0
   11.4045   -4.8286   18.1023 C   0  0  0  0  0  0  0  0  0  0  0  0
   11.5767   -4.3027   16.6919 C   0  0  0  0  0  0  0  0  0  0  0  0
   12.8384   -3.3923   16.7598 C   0  0  0  0  0  0  0  0  0  0  0  0
   13.7142   -3.9535   17.8955 C   0  0  0  0  0  0  0  0  0  0  0  0
    4.1254   -2.5881   29.9136 H   0  0  0  0  0  0  0  0  0  0  0  0
    2.5007   -1.9144   30.1131 H   0  0  0  0  0  0  0  0  0  0  0  0
    2.8841   -2.8012   28.6320 H   0  0  0  0  0  0  0  0  0  0  0  0
    6.1588   -0.5957   29.4749 H   0  0  0  0  0  0  0  0  0  0  0  0
    8.0993   -1.0760   28.0176 H   0  0  0  0  0  0  0  0  0  0  0  0
    7.8124   -1.7932   25.7401 H   0  0  0  0  0  0  0  0  0  0  0  0
    2.3885   -1.8247   26.3770 H   0  0  0  0  0  0  0  0  0  0  0  0
    3.0664   -2.6572   23.9312 H   0  0  0  0  0  0  0  0  0  0  0  0
    4.4758   -2.4009   22.8200 H   0  0  0  0  0  0  0  0  0  0  0  0
    5.2705   -1.1381   22.2141 H   0  0  0  0  0  0  0  0  0  0  0  0
    6.3193   -2.2893   20.7293 H   0  0  0  0  0  0  0  0  0  0  0  0
    5.0470   -3.2938   20.1724 H   0  0  0  0  0  0  0  0  0  0  0  0
    6.8660   -5.3477   19.6569 H   0  0  0  0  0  0  0  0  0  0  0  0
   11.3964   -4.6740   21.0447 H   0  0  0  0  0  0  0  0  0  0  0  0
   11.8291   -5.1716   16.0998 H   0  0  0  0  0  0  0  0  0  0  0  0
   10.7836   -3.7512   16.2075 H   0  0  0  0  0  0  0  0  0  0  0  0
   12.5333   -2.3681   17.0068 H   0  0  0  0  0  0  0  0  0  0  0  0
   13.3723   -3.3481   15.8071 H   0  0  0  0  0  0  0  0  0  0  0  0
   14.4859   -4.6154   17.5011 H   0  0  0  0  0  0  0  0  0  0  0  0
   14.1985   -3.1456   18.4518 H   0  0  0  0  0  0  0  0  0  0  0  0
  1  2  1  0
  2  3  1  0
  3  4  2  0
  4  5  1  0
  5  6  2  0
  6  7  1  0
  7  8  2  0
  8  9  1  0
  9 10  2  0
 10 11  1  0
 11 12  1  0
 12 13  1  0
 13 14  1  0
 14 15  1  0
 15 16  2  0
 15 17  1  0
 17 18  1  0
 18 19  1  0
 19 20  2  0
 20 21  1  0
 21 22  1  0
 22 23  1  0
 23 24  1  0
  8  3  1  0
 21 17  2  0
 11  7  1  0
 24 20  1  0
  1 25  1  0
  1 26  1  0
  1 27  1  0
  4 28  1  0
  5 29  1  0
  6 30  1  0
  9 31  1  0
 10 32  1  0
 12 33  1  0
 12 34  1  0
 13 35  1  0
 13 36  1  0
 14 37  1  0
 18 38  1  0
 22 39  1  0
 22 40  1  0
 23 41  1  0
 23 42  1  0
 24 43  1  0
 24 44  1  0
M  END
>  <Energy>  (781) 
616.38871482062927

>  <compound_id>  (781) 
46198

>  <target_id>  (781) 
1

>  <reference_id>  (781) 
122

>  <inspiration_ids>  (781) 
[40, 122]

>  <energy_score>  (781) 
567.0868946681248

>  <distance_score>  (781) 
6.4944297236148065

>  <path>  (781) 
/opt/xchem-fragalysis-2/maxwin/BulkDock/SCRATCH/511020/C46198-P122/C46198-P122.minimised.mol

>  <scratch_subdir>  (781) 
/opt/xchem-fragalysis-2/maxwin/BulkDock/SCRATCH/511020/C46198-P122

>  <fragmenstein_runtime>  (781) 
12.380404949188232

>  <fragmenstein_outcome>  (781) 
too moved

>  <fragmenstein_mode>  (781) 
expansion

>  <fragmenstein_error>  (781) 


$$$$
C11942-P80
     RDKit          3D

 38 39  0  0  0  0  0  0  0  0999 V2000
   -1.2890   -7.4601   26.9357 C   0  0  0  0  0  0  0  0  0  0  0  0
   -1.7837   -8.3983   25.8276 C   0  0  0  0  0  0  0  0  0  0  0  0
   -2.2405   -9.7641   26.4297 C   0  0  0  0  0  0  0  0  0  0  0  0
   -3.6266   -9.6082   27.2029 N   0  0  0  0  0  0  0  0  0  0  0  0
   -4.0600   -9.4401   28.1907 C   0  0  0  0  0  0  0  0  0  0  0  0
   -2.7684   -9.4733   29.1461 O   0  0  0  0  0  0  0  0  0  0  0  0
   -5.3709   -9.1437   28.7738 C   0  0  0  0  0  0  0  0  0  0  0  0
   -5.5071   -8.8874   30.1444 C   0  0  0  0  0  0  0  0  0  0  0  0
   -6.7300   -8.4375   30.6250 C   0  0  0  0  0  0  0  0  0  0  0  0
   -7.8011   -8.2366   29.8290 N   0  0  0  0  0  0  0  0  0  0  0  0
   -7.6651   -8.5569   28.5217 C   0  0  0  0  0  0  0  0  0  0  0  0
   -6.4848   -9.0072   27.9489 C   0  0  0  0  0  0  0  0  0  0  0  0
   -0.9510   -8.4394   24.6001 N   0  0  0  0  0  0  0  0  0  0  0  0
    0.3742   -9.0113   24.3566 C   0  0  0  0  0  0  0  0  0  0  0  0
    1.0884   -9.6617   25.0705 O   0  0  0  0  0  0  0  0  0  0  0  0
    0.7985   -8.7629   22.8578 C   0  0  0  0  0  0  0  0  0  0  0  0
    2.0408   -7.9377   22.5301 C   0  0  0  0  0  0  0  0  0  0  0  0
    2.2044   -7.1813   21.4490 N   0  0  0  0  0  0  0  0  0  0  0  0
    3.5030   -6.7277   21.4731 C   0  0  0  0  0  0  0  0  0  0  0  0
    4.1529   -7.2086   22.5793 C   0  0  0  0  0  0  0  0  0  0  0  0
    3.2224   -7.9751   23.2374 N   0  0  0  0  0  0  0  0  0  0  0  0
   -2.0287   -7.3334   27.7282 H   0  0  0  0  0  0  0  0  0  0  0  0
   -0.3692   -7.8496   27.3843 H   0  0  0  0  0  0  0  0  0  0  0  0
   -1.0575   -6.4729   26.5240 H   0  0  0  0  0  0  0  0  0  0  0  0
   -2.6917   -7.9376   25.4326 H   0  0  0  0  0  0  0  0  0  0  0  0
   -1.5051  -10.1068   27.1674 H   0  0  0  0  0  0  0  0  0  0  0  0
   -2.2979  -10.5567   25.6592 H   0  0  0  0  0  0  0  0  0  0  0  0
   -3.6578   -9.7818   26.2256 H   0  0  0  0  0  0  0  0  0  0  0  0
   -4.6686   -9.0229   30.8222 H   0  0  0  0  0  0  0  0  0  0  0  0
   -6.8784   -8.2197   31.6808 H   0  0  0  0  0  0  0  0  0  0  0  0
   -8.5635   -8.4260   27.9237 H   0  0  0  0  0  0  0  0  0  0  0  0
   -6.4396   -9.2225   26.8873 H   0  0  0  0  0  0  0  0  0  0  0  0
   -1.2208   -7.8801   23.8034 H   0  0  0  0  0  0  0  0  0  0  0  0
   -0.0392   -8.3331   22.2982 H   0  0  0  0  0  0  0  0  0  0  0  0
    0.9484   -9.7621   22.4265 H   0  0  0  0  0  0  0  0  0  0  0  0
    3.8870   -6.0770   20.6996 H   0  0  0  0  0  0  0  0  0  0  0  0
    5.1518   -7.0686   22.9666 H   0  0  0  0  0  0  0  0  0  0  0  0
    3.3307   -8.4237   24.1404 H   0  0  0  0  0  0  0  0  0  0  0  0
  1  2  1  0
  2  3  1  0
  3  4  1  0
  4  5  1  0
  5  6  2  0
  5  7  1  0
  7  8  2  0
  8  9  1  0
  9 10  2  0
 10 11  1  0
 11 12  2  0
  2 13  1  0
 13 14  1  0
 14 15  2  0
 14 16  1  0
 16 17  1  0
 17 18  2  0
 18 19  1  0
 19 20  2  0
 20 21  1  0
 12  7  1  0
 21 17  1  0
  1 22  1  0
  1 23  1  0
  1 24  1  0
  2 25  1  0
  3 26  1  0
  3 27  1  0
  4 28  1  0
  8 29  1  0
  9 30  1  0
 11 31  1  0
 12 32  1  0
 13 33  1  0
 16 34  1  0
 16 35  1  0
 19 36  1  0
 20 37  1  0
 21 38  1  0
M  END
>  <Energy>  (782) 
231.84670722076936

>  <compound_id>  (782) 
11942

>  <target_id>  (782) 
1

>  <reference_id>  (782) 
80

>  <inspiration_ids>  (782) 
[80, 7]

>  <energy_score>  (782) 
202.38555608390163

>  <distance_score>  (782) 
13.92973526107448

>  <path>  (782) 
/opt/xchem-fragalysis-2/maxwin/BulkDock/SCRATCH/511020/C11942-P80/C11942-P80.minimised.mol

>  <scratch_subdir>  (782) 
/opt/xchem-fragalysis-2/maxwin/BulkDock/SCRATCH/511020/C11942-P80

>  <fragmenstein_runtime>  (782) 
11.776422262191772

>  <fragmenstein_outcome>  (782) 
too moved

>  <fragmenstein_mode>  (782) 
expansion

>  <fragmenstein_error>  (782) 


$$$$
C11942-P7
     RDKit          3D

 38 39  0  0  0  0  0  0  0  0999 V2000
  -11.0782   -2.9459   28.1836 C   0  0  0  0  0  0  0  0  0  0  0  0
  -10.3959   -3.6864   29.3360 C   0  0  0  0  0  0  0  0  0  0  0  0
  -11.5537   -3.4376   30.8590 C   0  0  0  0  0  0  0  0  0  0  0  0
  -12.0152   -3.2336   32.5105 N   0  0  0  0  0  0  0  0  0  0  0  0
  -11.1410   -2.8510   33.8285 C   0  0  0  0  0  0  0  0  0  0  0  0
   -9.9658   -2.5402   33.9305 O   0  0  0  0  0  0  0  0  0  0  0  0
  -11.8258   -2.7278   35.1802 C   0  0  0  0  0  0  0  0  0  0  0  0
  -11.5095   -3.6246   36.2004 C   0  0  0  0  0  0  0  0  0  0  0  0
  -11.6919   -3.2465   37.5252 C   0  0  0  0  0  0  0  0  0  0  0  0
  -12.1970   -2.0642   37.9098 N   0  0  0  0  0  0  0  0  0  0  0  0
  -12.4748   -1.1944   36.9302 C   0  0  0  0  0  0  0  0  0  0  0  0
  -12.2700   -1.4680   35.5858 C   0  0  0  0  0  0  0  0  0  0  0  0
   -8.7148   -3.6952   28.9754 N   0  0  0  0  0  0  0  0  0  0  0  0
   -7.7638   -2.5827   28.7185 C   0  0  0  0  0  0  0  0  0  0  0  0
   -7.9577   -1.3993   28.6209 O   0  0  0  0  0  0  0  0  0  0  0  0
   -5.9966   -3.2413   28.6788 C   0  0  0  0  0  0  0  0  0  0  0  0
   -4.2899   -2.6311   28.2333 C   0  0  0  0  0  0  0  0  0  0  0  0
   -3.8613   -1.9931   27.1262 N   0  0  0  0  0  0  0  0  0  0  0  0
   -2.6720   -1.2921   27.4061 C   0  0  0  0  0  0  0  0  0  0  0  0
   -2.0723   -1.7445   28.5342 C   0  0  0  0  0  0  0  0  0  0  0  0
   -3.0175   -2.5780   29.0863 N   0  0  0  0  0  0  0  0  0  0  0  0
  -10.7656   -3.3718   27.2232 H   0  0  0  0  0  0  0  0  0  0  0  0
  -12.1680   -3.0224   28.2368 H   0  0  0  0  0  0  0  0  0  0  0  0
  -10.7937   -1.8912   28.1645 H   0  0  0  0  0  0  0  0  0  0  0  0
  -10.6073   -4.7439   29.1203 H   0  0  0  0  0  0  0  0  0  0  0  0
  -12.2077   -4.3062   30.6653 H   0  0  0  0  0  0  0  0  0  0  0  0
  -12.1965   -2.6464   30.4576 H   0  0  0  0  0  0  0  0  0  0  0  0
  -12.9668   -3.3560   32.7667 H   0  0  0  0  0  0  0  0  0  0  0  0
  -11.0583   -4.5847   35.9869 H   0  0  0  0  0  0  0  0  0  0  0  0
  -11.3887   -3.8926   38.3451 H   0  0  0  0  0  0  0  0  0  0  0  0
  -12.8315   -0.2230   37.2609 H   0  0  0  0  0  0  0  0  0  0  0  0
  -12.3892   -0.6569   34.8871 H   0  0  0  0  0  0  0  0  0  0  0  0
   -8.2278   -4.5602   28.9089 H   0  0  0  0  0  0  0  0  0  0  0  0
   -5.9865   -4.3004   28.9137 H   0  0  0  0  0  0  0  0  0  0  0  0
   -6.1098   -2.9848   27.6551 H   0  0  0  0  0  0  0  0  0  0  0  0
   -2.3299   -0.4940   26.7626 H   0  0  0  0  0  0  0  0  0  0  0  0
   -1.1631   -1.4792   29.0512 H   0  0  0  0  0  0  0  0  0  0  0  0
   -3.0103   -2.7880   30.0714 H   0  0  0  0  0  0  0  0  0  0  0  0
  1  2  1  0
  2  3  1  0
  3  4  1  0
  4  5  1  0
  5  6  2  0
  5  7  1  0
  7  8  2  0
  8  9  1  0
  9 10  2  0
 10 11  1  0
 11 12  2  0
  2 13  1  0
 13 14  1  0
 14 15  2  0
 14 16  1  0
 16 17  1  0
 17 18  2  0
 18 19  1  0
 19 20  2  0
 20 21  1  0
 12  7  1  0
 21 17  1  0
  1 22  1  0
  1 23  1  0
  1 24  1  0
  2 25  1  0
  3 26  1  0
  3 27  1  0
  4 28  1  0
  8 29  1  0
  9 30  1  0
 11 31  1  0
 12 32  1  0
 13 33  1  0
 16 34  1  0
 16 35  1  0
 19 36  1  0
 20 37  1  0
 21 38  1  0
M  END
>  <Energy>  (783) 
328.59759731491414

>  <compound_id>  (783) 
11942

>  <target_id>  (783) 
1

>  <reference_id>  (783) 
7

>  <inspiration_ids>  (783) 
[80, 7]

>  <energy_score>  (783) 
299.13644617804266

>  <distance_score>  (783) 
13.060036268100747

>  <path>  (783) 
/opt/xchem-fragalysis-2/maxwin/BulkDock/SCRATCH/511020/C11942-P7/C11942-P7.minimised.mol

>  <scratch_subdir>  (783) 
/opt/xchem-fragalysis-2/maxwin/BulkDock/SCRATCH/511020/C11942-P7

>  <fragmenstein_runtime>  (783) 
8.678962707519531

>  <fragmenstein_outcome>  (783) 
too moved

>  <fragmenstein_mode>  (783) 
expansion

>  <fragmenstein_error>  (783) 


$$$$
C8989-P80
     RDKit          3D

 35 36  0  0  0  0  0  0  0  0999 V2000
   -7.4158   -8.1409   26.6139 C   0  0  0  0  0  0  0  0  0  0  0  0
   -6.6895   -7.8923   27.9359 C   0  0  0  0  0  0  0  0  0  0  0  0
   -5.2773   -8.6432   27.9237 C   0  0  0  0  0  0  0  0  0  0  0  0
   -4.2631   -8.3698   26.8844 N   0  0  0  0  0  0  0  0  0  0  0  0
   -4.0897   -8.9237   25.5603 C   0  0  0  0  0  0  0  0  0  0  0  0
   -4.7704   -9.6872   24.9395 O   0  0  0  0  0  0  0  0  0  0  0  0
   -2.8258   -8.4157   24.8762 C   0  0  0  0  0  0  0  0  0  0  0  0
   -2.4636   -8.7552   23.5708 C   0  0  0  0  0  0  0  0  0  0  0  0
   -1.0131   -7.9737   23.0794 S   0  0  0  0  0  0  0  0  0  0  0  0
   -0.9439   -7.2399   24.6199 C   0  0  0  0  0  0  0  0  0  0  0  0
   -1.9090   -7.5312   25.4733 N   0  0  0  0  0  0  0  0  0  0  0  0
   -6.7300   -6.4495   28.3463 N   0  0  0  0  0  0  0  0  0  0  0  0
   -7.3588   -5.3061   27.7285 C   0  0  0  0  0  0  0  0  0  0  0  0
   -8.0792   -5.2316   26.7668 O   0  0  0  0  0  0  0  0  0  0  0  0
   -6.9849   -3.9128   28.3038 C   0  0  0  0  0  0  0  0  0  0  0  0
   -6.9278   -3.4879   29.7338 C   0  0  0  0  0  0  0  0  0  0  0  0
   -5.8639   -3.4770   30.5315 N   0  0  0  0  0  0  0  0  0  0  0  0
   -6.1189   -2.6165   31.5985 C   0  0  0  0  0  0  0  0  0  0  0  0
   -7.3620   -2.0596   31.4399 C   0  0  0  0  0  0  0  0  0  0  0  0
   -7.8681   -2.6131   30.2762 N   0  0  0  0  0  0  0  0  0  0  0  0
   -6.9466   -7.5939   25.7900 H   0  0  0  0  0  0  0  0  0  0  0  0
   -8.4621   -7.8240   26.6770 H   0  0  0  0  0  0  0  0  0  0  0  0
   -7.4148   -9.2062   26.3606 H   0  0  0  0  0  0  0  0  0  0  0  0
   -7.2696   -8.3867   28.7260 H   0  0  0  0  0  0  0  0  0  0  0  0
   -5.4901   -9.7161   27.8366 H   0  0  0  0  0  0  0  0  0  0  0  0
   -4.7744   -8.5009   28.8824 H   0  0  0  0  0  0  0  0  0  0  0  0
   -3.4411   -7.8165   27.1229 H   0  0  0  0  0  0  0  0  0  0  0  0
   -2.9941   -9.4130   22.8959 H   0  0  0  0  0  0  0  0  0  0  0  0
   -0.1505   -6.5606   24.8703 H   0  0  0  0  0  0  0  0  0  0  0  0
   -6.2548   -6.1468   29.2019 H   0  0  0  0  0  0  0  0  0  0  0  0
   -7.6547   -3.2022   27.7955 H   0  0  0  0  0  0  0  0  0  0  0  0
   -5.9940   -3.6799   27.9168 H   0  0  0  0  0  0  0  0  0  0  0  0
   -5.3979   -2.4547   32.3883 H   0  0  0  0  0  0  0  0  0  0  0  0
   -7.8963   -1.3678   32.0635 H   0  0  0  0  0  0  0  0  0  0  0  0
   -8.7555   -2.4342   29.8355 H   0  0  0  0  0  0  0  0  0  0  0  0
  1  2  1  0
  2  3  1  0
  3  4  1  0
  4  5  1  0
  5  6  2  0
  5  7  1  0
  7  8  2  0
  8  9  1  0
  9 10  1  0
 10 11  2  0
  2 12  1  0
 12 13  1  0
 13 14  2  0
 13 15  1  0
 15 16  1  0
 16 17  2  0
 17 18  1  0
 18 19  2  0
 19 20  1  0
 11  7  1  0
 20 16  1  0
  1 21  1  0
  1 22  1  0
  1 23  1  0
  2 24  1  0
  3 25  1  0
  3 26  1  0
  4 27  1  0
  8 28  1  0
 10 29  1  0
 12 30  1  0
 15 31  1  0
 15 32  1  0
 18 33  1  0
 19 34  1  0
 20 35  1  0
M  END
>  <Energy>  (784) 
54.877216846762423

>  <compound_id>  (784) 
8989

>  <target_id>  (784) 
1

>  <reference_id>  (784) 
80

>  <inspiration_ids>  (784) 
[80, 7]

>  <energy_score>  (784) 
-57.01909074700188

>  <distance_score>  (784) 
13.614038480995879

>  <path>  (784) 
/opt/xchem-fragalysis-2/maxwin/BulkDock/SCRATCH/511020/C8989-P80/C8989-P80.minimised.mol

>  <scratch_subdir>  (784) 
/opt/xchem-fragalysis-2/maxwin/BulkDock/SCRATCH/511020/C8989-P80

>  <fragmenstein_runtime>  (784) 
8.75589370727539

>  <fragmenstein_outcome>  (784) 
too moved

>  <fragmenstein_mode>  (784) 
expansion

>  <fragmenstein_error>  (784) 


$$$$
C8989-P7
     RDKit          3D

 35 36  0  0  0  0  0  0  0  0999 V2000
    2.2390   -0.3521   30.2319 C   0  0  0  0  0  0  0  0  0  0  0  0
    1.5653   -1.5166   29.5122 C   0  0  0  0  0  0  0  0  0  0  0  0
    1.3981   -1.2534   27.9886 C   0  0  0  0  0  0  0  0  0  0  0  0
    2.5794   -1.4464   27.1298 N   0  0  0  0  0  0  0  0  0  0  0  0
    3.7410   -0.6259   26.9257 C   0  0  0  0  0  0  0  0  0  0  0  0
    4.0845    0.3876   27.4616 O   0  0  0  0  0  0  0  0  0  0  0  0
    4.6148   -1.1555   25.8138 C   0  0  0  0  0  0  0  0  0  0  0  0
    5.6406   -0.4202   25.2221 C   0  0  0  0  0  0  0  0  0  0  0  0
    6.3779   -1.2875   23.9335 S   0  0  0  0  0  0  0  0  0  0  0  0
    5.3055   -2.5852   24.2493 C   0  0  0  0  0  0  0  0  0  0  0  0
    4.4759   -2.4377   25.2635 N   0  0  0  0  0  0  0  0  0  0  0  0
    0.3070   -1.9025   30.2063 N   0  0  0  0  0  0  0  0  0  0  0  0
   -0.7968   -1.0861   30.7190 C   0  0  0  0  0  0  0  0  0  0  0  0
   -1.0000    0.0943   30.6374 O   0  0  0  0  0  0  0  0  0  0  0  0
   -1.8007   -2.0125   31.4673 C   0  0  0  0  0  0  0  0  0  0  0  0
   -2.8399   -1.3503   32.3584 C   0  0  0  0  0  0  0  0  0  0  0  0
   -3.5607   -1.9613   33.2910 N   0  0  0  0  0  0  0  0  0  0  0  0
   -4.4474   -1.0265   33.7724 C   0  0  0  0  0  0  0  0  0  0  0  0
   -4.2453    0.1839   33.1619 C   0  0  0  0  0  0  0  0  0  0  0  0
   -3.2171   -0.0279   32.2800 N   0  0  0  0  0  0  0  0  0  0  0  0
    2.3110   -0.5490   31.3074 H   0  0  0  0  0  0  0  0  0  0  0  0
    3.2536   -0.1907   29.8591 H   0  0  0  0  0  0  0  0  0  0  0  0
    1.6761    0.5781   30.1025 H   0  0  0  0  0  0  0  0  0  0  0  0
    2.2099   -2.3974   29.6261 H   0  0  0  0  0  0  0  0  0  0  0  0
    0.6403   -1.9422   27.6051 H   0  0  0  0  0  0  0  0  0  0  0  0
    1.0348   -0.2334   27.8211 H   0  0  0  0  0  0  0  0  0  0  0  0
    2.5730   -2.1950   26.4300 H   0  0  0  0  0  0  0  0  0  0  0  0
    5.9517    0.5848   25.4696 H   0  0  0  0  0  0  0  0  0  0  0  0
    5.3202   -3.4870   23.6528 H   0  0  0  0  0  0  0  0  0  0  0  0
    0.1103   -2.8807   30.3906 H   0  0  0  0  0  0  0  0  0  0  0  0
   -1.2274   -2.7043   32.0965 H   0  0  0  0  0  0  0  0  0  0  0  0
   -2.3276   -2.5991   30.7071 H   0  0  0  0  0  0  0  0  0  0  0  0
   -5.1777   -1.2783   34.5298 H   0  0  0  0  0  0  0  0  0  0  0  0
   -4.7273    1.1461   33.2576 H   0  0  0  0  0  0  0  0  0  0  0  0
   -2.7975    0.6492   31.6510 H   0  0  0  0  0  0  0  0  0  0  0  0
  1  2  1  0
  2  3  1  0
  3  4  1  0
  4  5  1  0
  5  6  2  0
  5  7  1  0
  7  8  2  0
  8  9  1  0
  9 10  1  0
 10 11  2  0
  2 12  1  0
 12 13  1  0
 13 14  2  0
 13 15  1  0
 15 16  1  0
 16 17  2  0
 17 18  1  0
 18 19  2  0
 19 20  1  0
 11  7  1  0
 20 16  1  0
  1 21  1  0
  1 22  1  0
  1 23  1  0
  2 24  1  0
  3 25  1  0
  3 26  1  0
  4 27  1  0
  8 28  1  0
 10 29  1  0
 12 30  1  0
 15 31  1  0
 15 32  1  0
 18 33  1  0
 19 34  1  0
 20 35  1  0
M  END
>  <Energy>  (785) 
33.247358666472138

>  <compound_id>  (785) 
8989

>  <target_id>  (785) 
1

>  <reference_id>  (785) 
7

>  <inspiration_ids>  (785) 
[80, 7]

>  <energy_score>  (785) 
-78.64894892729227

>  <distance_score>  (785) 
12.242792393046237

>  <path>  (785) 
/opt/xchem-fragalysis-2/maxwin/BulkDock/SCRATCH/511020/C8989-P7/C8989-P7.minimised.mol

>  <scratch_subdir>  (785) 
/opt/xchem-fragalysis-2/maxwin/BulkDock/SCRATCH/511020/C8989-P7

>  <fragmenstein_runtime>  (785) 
8.595825910568237

>  <fragmenstein_outcome>  (785) 
too moved

>  <fragmenstein_mode>  (785) 
expansion

>  <fragmenstein_error>  (785) 


$$$$
C9624-P80
     RDKit          3D

 38 39  0  0  0  0  0  0  0  0999 V2000
   -0.3716   -3.0591   28.4372 C   0  0  0  0  0  0  0  0  0  0  0  0
   -0.5760   -1.9612   27.3732 C   0  0  0  0  0  0  0  0  0  0  0  0
   -1.9994   -1.2692   27.4341 C   0  0  0  0  0  0  0  0  0  0  0  0
   -2.7200   -1.2068   28.7045 N   0  0  0  0  0  0  0  0  0  0  0  0
   -2.6045   -0.3036   29.8064 C   0  0  0  0  0  0  0  0  0  0  0  0
   -1.8327    0.5878   30.0079 O   0  0  0  0  0  0  0  0  0  0  0  0
   -3.7494   -0.5018   30.8156 C   0  0  0  0  0  0  0  0  0  0  0  0
   -3.8274    0.2963   31.9549 C   0  0  0  0  0  0  0  0  0  0  0  0
   -4.9404    0.1710   32.7967 C   0  0  0  0  0  0  0  0  0  0  0  0
   -5.9462   -0.7317   32.4754 C   0  0  0  0  0  0  0  0  0  0  0  0
   -5.7876   -1.4913   31.3270 C   0  0  0  0  0  0  0  0  0  0  0  0
   -4.7132   -1.4187   30.4955 N   0  0  0  0  0  0  0  0  0  0  0  0
    0.4294   -2.5068   26.0159 N   0  0  0  0  0  0  0  0  0  0  0  0
   -0.0849   -2.8465   23.7707 C   0  0  0  0  0  0  0  0  0  0  0  0
   -1.1600   -2.6085   23.1513 O   0  0  0  0  0  0  0  0  0  0  0  0
    1.6408   -3.4662   23.0179 C   0  0  0  0  0  0  0  0  0  0  0  0
    3.1576   -2.6401   23.8452 C   0  0  0  0  0  0  0  0  0  0  0  0
    4.3343   -2.2162   23.3522 N   0  0  0  0  0  0  0  0  0  0  0  0
    5.1549   -1.5968   24.2603 C   0  0  0  0  0  0  0  0  0  0  0  0
    4.4778   -1.5119   25.4252 C   0  0  0  0  0  0  0  0  0  0  0  0
    3.2667   -2.0819   25.1426 N   0  0  0  0  0  0  0  0  0  0  0  0
   -0.7907   -4.0171   28.1243 H   0  0  0  0  0  0  0  0  0  0  0  0
    0.7003   -3.2294   28.5943 H   0  0  0  0  0  0  0  0  0  0  0  0
   -0.7973   -2.7853   29.4059 H   0  0  0  0  0  0  0  0  0  0  0  0
    0.0923   -1.1530   27.7130 H   0  0  0  0  0  0  0  0  0  0  0  0
   -2.7541   -1.7549   26.8214 H   0  0  0  0  0  0  0  0  0  0  0  0
   -1.8951   -0.2362   27.0803 H   0  0  0  0  0  0  0  0  0  0  0  0
   -3.4470   -1.8933   28.9126 H   0  0  0  0  0  0  0  0  0  0  0  0
   -3.0507    1.0232   32.1724 H   0  0  0  0  0  0  0  0  0  0  0  0
   -5.0258    0.7978   33.6799 H   0  0  0  0  0  0  0  0  0  0  0  0
   -6.8343   -0.8305   33.0894 H   0  0  0  0  0  0  0  0  0  0  0  0
   -6.5563   -2.1973   31.0243 H   0  0  0  0  0  0  0  0  0  0  0  0
    1.4067   -2.7178   26.2386 H   0  0  0  0  0  0  0  0  0  0  0  0
    1.5597   -3.2916   21.9686 H   0  0  0  0  0  0  0  0  0  0  0  0
    1.5937   -4.5482   23.1054 H   0  0  0  0  0  0  0  0  0  0  0  0
    6.1361   -1.2345   23.9957 H   0  0  0  0  0  0  0  0  0  0  0  0
    4.6967   -1.0492   26.3737 H   0  0  0  0  0  0  0  0  0  0  0  0
    2.4498   -1.7610   25.6064 H   0  0  0  0  0  0  0  0  0  0  0  0
  1  2  1  0
  2  3  1  0
  3  4  1  0
  4  5  1  0
  5  6  2  0
  5  7  1  0
  7  8  2  0
  8  9  1  0
  9 10  2  0
 10 11  1  0
 11 12  2  0
  2 13  1  0
 13 14  1  0
 14 15  2  0
 14 16  1  0
 16 17  1  0
 17 18  2  0
 18 19  1  0
 19 20  2  0
 20 21  1  0
 12  7  1  0
 21 17  1  0
  1 22  1  0
  1 23  1  0
  1 24  1  0
  2 25  1  0
  3 26  1  0
  3 27  1  0
  4 28  1  0
  8 29  1  0
  9 30  1  0
 10 31  1  0
 11 32  1  0
 13 33  1  0
 16 34  1  0
 16 35  1  0
 19 36  1  0
 20 37  1  0
 21 38  1  0
M  END
>  <Energy>  (786) 
677.0161582735476

>  <compound_id>  (786) 
9624

>  <target_id>  (786) 
1

>  <reference_id>  (786) 
80

>  <inspiration_ids>  (786) 
[80, 7]

>  <energy_score>  (786) 
588.5150695682547

>  <distance_score>  (786) 
12.04057502604349

>  <path>  (786) 
/opt/xchem-fragalysis-2/maxwin/BulkDock/SCRATCH/511020/C9624-P80/C9624-P80.minimised.mol

>  <scratch_subdir>  (786) 
/opt/xchem-fragalysis-2/maxwin/BulkDock/SCRATCH/511020/C9624-P80

>  <fragmenstein_runtime>  (786) 
13.680269479751587

>  <fragmenstein_outcome>  (786) 
too moved

>  <fragmenstein_mode>  (786) 
expansion

>  <fragmenstein_error>  (786) 


$$$$
C9624-P7
     RDKit          3D

 38 39  0  0  0  0  0  0  0  0999 V2000
    3.1530  -12.5824   28.4912 C   0  0  0  0  0  0  0  0  0  0  0  0
    3.2561  -11.1460   29.0042 C   0  0  0  0  0  0  0  0  0  0  0  0
    2.8574  -11.1050   30.5355 C   0  0  0  0  0  0  0  0  0  0  0  0
    1.5446  -10.5291   30.9056 N   0  0  0  0  0  0  0  0  0  0  0  0
    0.5749  -10.9403   31.8946 C   0  0  0  0  0  0  0  0  0  0  0  0
    0.5504  -11.9005   32.6132 O   0  0  0  0  0  0  0  0  0  0  0  0
   -0.5748   -9.9233   32.1446 C   0  0  0  0  0  0  0  0  0  0  0  0
   -1.6134  -10.2507   33.0243 C   0  0  0  0  0  0  0  0  0  0  0  0
   -2.6061   -9.3001   33.3275 C   0  0  0  0  0  0  0  0  0  0  0  0
   -2.5414   -8.0386   32.7527 C   0  0  0  0  0  0  0  0  0  0  0  0
   -1.4847   -7.7906   31.8891 C   0  0  0  0  0  0  0  0  0  0  0  0
   -0.5106   -8.6936   31.5676 N   0  0  0  0  0  0  0  0  0  0  0  0
    4.6106  -10.5491   28.6808 N   0  0  0  0  0  0  0  0  0  0  0  0
    5.4999  -10.7429   27.5178 C   0  0  0  0  0  0  0  0  0  0  0  0
    5.4057  -11.4826   26.5777 O   0  0  0  0  0  0  0  0  0  0  0  0
    6.7055   -9.7514   27.5679 C   0  0  0  0  0  0  0  0  0  0  0  0
    7.3989   -9.4562   26.2270 C   0  0  0  0  0  0  0  0  0  0  0  0
    7.7221   -8.2652   25.7321 N   0  0  0  0  0  0  0  0  0  0  0  0
    8.5791   -8.5005   24.6689 C   0  0  0  0  0  0  0  0  0  0  0  0
    8.7073   -9.8458   24.4545 C   0  0  0  0  0  0  0  0  0  0  0  0
    7.9239  -10.4392   25.4105 N   0  0  0  0  0  0  0  0  0  0  0  0
    3.2511  -12.6211   27.4019 H   0  0  0  0  0  0  0  0  0  0  0  0
    2.1811  -13.0186   28.7454 H   0  0  0  0  0  0  0  0  0  0  0  0
    3.9382  -13.2127   28.9221 H   0  0  0  0  0  0  0  0  0  0  0  0
    2.5349  -10.5431   28.4436 H   0  0  0  0  0  0  0  0  0  0  0  0
    2.8921  -12.1121   30.9674 H   0  0  0  0  0  0  0  0  0  0  0  0
    3.5961  -10.5162   31.0895 H   0  0  0  0  0  0  0  0  0  0  0  0
    1.2790   -9.6038   30.5409 H   0  0  0  0  0  0  0  0  0  0  0  0
   -1.6444  -11.2315   33.4913 H   0  0  0  0  0  0  0  0  0  0  0  0
   -3.4054   -9.5518   34.0201 H   0  0  0  0  0  0  0  0  0  0  0  0
   -3.2793   -7.2772   32.9757 H   0  0  0  0  0  0  0  0  0  0  0  0
   -1.3721   -6.8210   31.4103 H   0  0  0  0  0  0  0  0  0  0  0  0
    5.0435   -9.8978   29.3255 H   0  0  0  0  0  0  0  0  0  0  0  0
    6.3619   -8.7980   27.9824 H   0  0  0  0  0  0  0  0  0  0  0  0
    7.4477  -10.1730   28.2555 H   0  0  0  0  0  0  0  0  0  0  0  0
    9.0312   -7.6924   24.1068 H   0  0  0  0  0  0  0  0  0  0  0  0
    9.2461  -10.4219   23.7156 H   0  0  0  0  0  0  0  0  0  0  0  0
    7.7706  -11.4340   25.5241 H   0  0  0  0  0  0  0  0  0  0  0  0
  1  2  1  0
  2  3  1  0
  3  4  1  0
  4  5  1  0
  5  6  2  0
  5  7  1  0
  7  8  2  0
  8  9  1  0
  9 10  2  0
 10 11  1  0
 11 12  2  0
  2 13  1  0
 13 14  1  0
 14 15  2  0
 14 16  1  0
 16 17  1  0
 17 18  2  0
 18 19  1  0
 19 20  2  0
 20 21  1  0
 12  7  1  0
 21 17  1  0
  1 22  1  0
  1 23  1  0
  1 24  1  0
  2 25  1  0
  3 26  1  0
  3 27  1  0
  4 28  1  0
  8 29  1  0
  9 30  1  0
 10 31  1  0
 11 32  1  0
 13 33  1  0
 16 34  1  0
 16 35  1  0
 19 36  1  0
 20 37  1  0
 21 38  1  0
M  END
>  <Energy>  (787) 
76.934351993928914

>  <compound_id>  (787) 
9624

>  <target_id>  (787) 
1

>  <reference_id>  (787) 
7

>  <inspiration_ids>  (787) 
[80, 7]

>  <energy_score>  (787) 
-11.566736711369003

>  <distance_score>  (787) 
14.8512252300052

>  <path>  (787) 
/opt/xchem-fragalysis-2/maxwin/BulkDock/SCRATCH/511020/C9624-P7/C9624-P7.minimised.mol

>  <scratch_subdir>  (787) 
/opt/xchem-fragalysis-2/maxwin/BulkDock/SCRATCH/511020/C9624-P7

>  <fragmenstein_runtime>  (787) 
15.236340999603271

>  <fragmenstein_outcome>  (787) 
too moved

>  <fragmenstein_mode>  (787) 
expansion

>  <fragmenstein_error>  (787) 


$$$$
C11894-P80
     RDKit          3D

 38 39  0  0  0  0  0  0  0  0999 V2000
    3.4626   -0.2490   27.5658 C   0  0  0  0  0  0  0  0  0  0  0  0
    3.0034   -1.4041   26.6562 C   0  0  0  0  0  0  0  0  0  0  0  0
    2.6224   -2.6146   27.5434 C   0  0  0  0  0  0  0  0  0  0  0  0
    1.4551   -2.4159   28.4629 N   0  0  0  0  0  0  0  0  0  0  0  0
    0.3586   -3.2931   28.8045 C   0  0  0  0  0  0  0  0  0  0  0  0
    0.0601   -4.3739   28.3789 O   0  0  0  0  0  0  0  0  0  0  0  0
   -0.6176   -2.8001   29.8719 C   0  0  0  0  0  0  0  0  0  0  0  0
   -1.2754   -3.7395   30.6934 C   0  0  0  0  0  0  0  0  0  0  0  0
   -2.2504   -3.3521   31.6244 C   0  0  0  0  0  0  0  0  0  0  0  0
   -2.5637   -2.0120   31.7153 C   0  0  0  0  0  0  0  0  0  0  0  0
   -1.9850   -1.0686   30.9361 N   0  0  0  0  0  0  0  0  0  0  0  0
   -1.0374   -1.4857   30.0344 C   0  0  0  0  0  0  0  0  0  0  0  0
    3.9970   -1.4696   25.5433 N   0  0  0  0  0  0  0  0  0  0  0  0
    3.9146   -2.1181   24.1833 C   0  0  0  0  0  0  0  0  0  0  0  0
    3.0672   -2.8028   23.7012 O   0  0  0  0  0  0  0  0  0  0  0  0
    5.1218   -1.6733   23.3504 C   0  0  0  0  0  0  0  0  0  0  0  0
    5.7773   -1.5825   21.5551 C   0  0  0  0  0  0  0  0  0  0  0  0
    7.1753   -1.5982   20.8528 N   0  0  0  0  0  0  0  0  0  0  0  0
    7.7146   -0.7284   19.9460 C   0  0  0  0  0  0  0  0  0  0  0  0
    6.8170    0.0098   19.4832 C   0  0  0  0  0  0  0  0  0  0  0  0
    6.0870   -0.1568   21.0135 N   0  0  0  0  0  0  0  0  0  0  0  0
    4.3951   -0.5054   28.0810 H   0  0  0  0  0  0  0  0  0  0  0  0
    2.7111    0.0032   28.3196 H   0  0  0  0  0  0  0  0  0  0  0  0
    3.6489    0.6574   26.9777 H   0  0  0  0  0  0  0  0  0  0  0  0
    2.0826   -1.0732   26.2169 H   0  0  0  0  0  0  0  0  0  0  0  0
    3.4660   -2.9001   28.1779 H   0  0  0  0  0  0  0  0  0  0  0  0
    2.3542   -3.4599   26.9213 H   0  0  0  0  0  0  0  0  0  0  0  0
    1.4446   -1.6179   29.0834 H   0  0  0  0  0  0  0  0  0  0  0  0
   -1.0237   -4.7966   30.6032 H   0  0  0  0  0  0  0  0  0  0  0  0
   -2.7380   -4.0857   32.2587 H   0  0  0  0  0  0  0  0  0  0  0  0
   -3.3042   -1.6510   32.4225 H   0  0  0  0  0  0  0  0  0  0  0  0
   -0.6416   -0.6885   29.4109 H   0  0  0  0  0  0  0  0  0  0  0  0
    4.8992   -1.0251   25.6478 H   0  0  0  0  0  0  0  0  0  0  0  0
    5.7746   -2.2707   23.9399 H   0  0  0  0  0  0  0  0  0  0  0  0
    5.1212   -0.6493   23.7183 H   0  0  0  0  0  0  0  0  0  0  0  0
    8.5977   -0.8523   19.4416 H   0  0  0  0  0  0  0  0  0  0  0  0
    6.6576    0.7534   18.7192 H   0  0  0  0  0  0  0  0  0  0  0  0
    5.2639    0.3638   21.3111 H   0  0  0  0  0  0  0  0  0  0  0  0
  1  2  1  0
  2  3  1  0
  3  4  1  0
  4  5  1  0
  5  6  2  0
  5  7  1  0
  7  8  2  0
  8  9  1  0
  9 10  2  0
 10 11  1  0
 11 12  2  0
  2 13  1  0
 13 14  1  0
 14 15  2  0
 14 16  1  0
 16 17  1  0
 17 18  2  0
 18 19  1  0
 19 20  2  0
 20 21  1  0
 12  7  1  0
 21 17  1  0
  1 22  1  0
  1 23  1  0
  1 24  1  0
  2 25  1  0
  3 26  1  0
  3 27  1  0
  4 28  1  0
  8 29  1  0
  9 30  1  0
 10 31  1  0
 12 32  1  0
 13 33  1  0
 16 34  1  0
 16 35  1  0
 19 36  1  0
 20 37  1  0
 21 38  1  0
M  END
>  <Energy>  (788) 
306.56697117122076

>  <compound_id>  (788) 
11894

>  <target_id>  (788) 
1

>  <reference_id>  (788) 
80

>  <inspiration_ids>  (788) 
[80, 7]

>  <energy_score>  (788) 
247.2210023996157

>  <distance_score>  (788) 
10.756612681323073

>  <path>  (788) 
/opt/xchem-fragalysis-2/maxwin/BulkDock/SCRATCH/511020/C11894-P80/C11894-P80.minimised.mol

>  <scratch_subdir>  (788) 
/opt/xchem-fragalysis-2/maxwin/BulkDock/SCRATCH/511020/C11894-P80

>  <fragmenstein_runtime>  (788) 
12.32040548324585

>  <fragmenstein_outcome>  (788) 
too moved

>  <fragmenstein_mode>  (788) 
expansion

>  <fragmenstein_error>  (788) 


$$$$
C11894-P7
     RDKit          3D

 38 39  0  0  0  0  0  0  0  0999 V2000
   -0.8288   -0.2586   28.3730 C   0  0  0  0  0  0  0  0  0  0  0  0
   -0.4651    1.0619   29.0519 C   0  0  0  0  0  0  0  0  0  0  0  0
   -0.3846    0.8909   30.6002 C   0  0  0  0  0  0  0  0  0  0  0  0
   -1.6082    0.4661   31.3030 N   0  0  0  0  0  0  0  0  0  0  0  0
   -2.1013    0.7870   32.6205 C   0  0  0  0  0  0  0  0  0  0  0  0
   -1.6818    1.5426   33.4482 O   0  0  0  0  0  0  0  0  0  0  0  0
   -3.3730    0.0864   33.0405 C   0  0  0  0  0  0  0  0  0  0  0  0
   -3.7005   -1.2290   32.7185 C   0  0  0  0  0  0  0  0  0  0  0  0
   -4.9096   -1.7786   33.1709 C   0  0  0  0  0  0  0  0  0  0  0  0
   -5.7646   -0.9992   33.9354 C   0  0  0  0  0  0  0  0  0  0  0  0
   -5.4740    0.2645   34.2982 N   0  0  0  0  0  0  0  0  0  0  0  0
   -4.2808    0.7625   33.8666 C   0  0  0  0  0  0  0  0  0  0  0  0
    0.7795    1.5929   28.4529 N   0  0  0  0  0  0  0  0  0  0  0  0
    1.0560    2.0961   27.1078 C   0  0  0  0  0  0  0  0  0  0  0  0
    0.3225    2.2781   26.1756 O   0  0  0  0  0  0  0  0  0  0  0  0
    2.5820    2.3632   26.9519 C   0  0  0  0  0  0  0  0  0  0  0  0
    2.9916    3.1676   25.7324 C   0  0  0  0  0  0  0  0  0  0  0  0
    4.0022    4.0220   25.6653 N   0  0  0  0  0  0  0  0  0  0  0  0
    3.9492    4.5814   24.4082 C   0  0  0  0  0  0  0  0  0  0  0  0
    2.9717    3.9810   23.6546 C   0  0  0  0  0  0  0  0  0  0  0  0
    2.3776    3.0873   24.5024 N   0  0  0  0  0  0  0  0  0  0  0  0
   -0.9330   -0.1179   27.2929 H   0  0  0  0  0  0  0  0  0  0  0  0
   -0.0527   -1.0143   28.5357 H   0  0  0  0  0  0  0  0  0  0  0  0
   -1.7795   -0.6541   28.7424 H   0  0  0  0  0  0  0  0  0  0  0  0
   -1.2506    1.7851   28.8073 H   0  0  0  0  0  0  0  0  0  0  0  0
    0.3841    0.1503   30.8503 H   0  0  0  0  0  0  0  0  0  0  0  0
   -0.0663    1.8352   31.0570 H   0  0  0  0  0  0  0  0  0  0  0  0
   -2.1685   -0.2793   30.9138 H   0  0  0  0  0  0  0  0  0  0  0  0
   -3.0207   -1.8537   32.1474 H   0  0  0  0  0  0  0  0  0  0  0  0
   -5.1684   -2.8028   32.9269 H   0  0  0  0  0  0  0  0  0  0  0  0
   -6.7176   -1.3794   34.2905 H   0  0  0  0  0  0  0  0  0  0  0  0
   -4.0680    1.7720   34.2147 H   0  0  0  0  0  0  0  0  0  0  0  0
    1.6560    1.4908   28.9559 H   0  0  0  0  0  0  0  0  0  0  0  0
    3.0869    1.3911   26.9126 H   0  0  0  0  0  0  0  0  0  0  0  0
    2.9315    2.8987   27.8426 H   0  0  0  0  0  0  0  0  0  0  0  0
    4.6389    5.3592   24.1081 H   0  0  0  0  0  0  0  0  0  0  0  0
    2.6436    4.1142   22.6333 H   0  0  0  0  0  0  0  0  0  0  0  0
    1.5378    2.5582   24.3237 H   0  0  0  0  0  0  0  0  0  0  0  0
  1  2  1  0
  2  3  1  0
  3  4  1  0
  4  5  1  0
  5  6  2  0
  5  7  1  0
  7  8  2  0
  8  9  1  0
  9 10  2  0
 10 11  1  0
 11 12  2  0
  2 13  1  0
 13 14  1  0
 14 15  2  0
 14 16  1  0
 16 17  1  0
 17 18  2  0
 18 19  1  0
 19 20  2  0
 20 21  1  0
 12  7  1  0
 21 17  1  0
  1 22  1  0
  1 23  1  0
  1 24  1  0
  2 25  1  0
  3 26  1  0
  3 27  1  0
  4 28  1  0
  8 29  1  0
  9 30  1  0
 10 31  1  0
 12 32  1  0
 13 33  1  0
 16 34  1  0
 16 35  1  0
 19 36  1  0
 20 37  1  0
 21 38  1  0
M  END
>  <Energy>  (789) 
45.832220552674279

>  <compound_id>  (789) 
11894

>  <target_id>  (789) 
1

>  <reference_id>  (789) 
7

>  <inspiration_ids>  (789) 
[80, 7]

>  <energy_score>  (789) 
-13.513748218930346

>  <distance_score>  (789) 
11.595398355610758

>  <path>  (789) 
/opt/xchem-fragalysis-2/maxwin/BulkDock/SCRATCH/511020/C11894-P7/C11894-P7.minimised.mol

>  <scratch_subdir>  (789) 
/opt/xchem-fragalysis-2/maxwin/BulkDock/SCRATCH/511020/C11894-P7

>  <fragmenstein_runtime>  (789) 
10.655771255493164

>  <fragmenstein_outcome>  (789) 
too moved

>  <fragmenstein_mode>  (789) 
expansion

>  <fragmenstein_error>  (789) 


$$$$
C11943-P80
     RDKit          3D

 44 45  0  0  0  0  0  0  0  0999 V2000
    6.6722   -0.8417   23.2460 C   0  0  0  0  0  0  0  0  0  0  0  0
    7.2626    0.0502   22.1624 C   0  0  0  0  0  0  0  0  0  0  0  0
    6.4349    1.2292   21.8009 C   0  0  0  0  0  0  0  0  0  0  0  0
    6.3228    1.9543   20.6351 C   0  0  0  0  0  0  0  0  0  0  0  0
    5.3538    2.9142   20.7389 N   0  0  0  0  0  0  0  0  0  0  0  0
    4.7938    2.7344   21.9252 C   0  0  0  0  0  0  0  0  0  0  0  0
    3.5345    3.4057   22.4193 C   0  0  0  0  0  0  0  0  0  0  0  0
    3.2168    3.2833   23.9370 C   0  0  0  0  0  0  0  0  0  0  0  0
    3.9670    2.7213   24.6832 O   0  0  0  0  0  0  0  0  0  0  0  0
    1.9630    3.9848   24.1991 N   0  0  0  0  0  0  0  0  0  0  0  0
    1.1821    4.1375   25.4415 C   0  0  0  0  0  0  0  0  0  0  0  0
    2.0585    4.6693   26.5726 C   0  0  0  0  0  0  0  0  0  0  0  0
    0.4556    2.8356   25.8479 C   0  0  0  0  0  0  0  0  0  0  0  0
   -0.5616    2.9255   26.8948 N   0  0  0  0  0  0  0  0  0  0  0  0
   -1.8668    2.3195   26.9998 C   0  0  0  0  0  0  0  0  0  0  0  0
   -2.4839    1.6506   26.2186 O   0  0  0  0  0  0  0  0  0  0  0  0
   -2.5832    2.5740   28.3159 C   0  0  0  0  0  0  0  0  0  0  0  0
   -3.4921    1.6134   28.8030 C   0  0  0  0  0  0  0  0  0  0  0  0
   -4.1860    1.8647   29.9800 C   0  0  0  0  0  0  0  0  0  0  0  0
   -4.0380    2.9982   30.6935 N   0  0  0  0  0  0  0  0  0  0  0  0
   -3.1740    3.9172   30.2002 C   0  0  0  0  0  0  0  0  0  0  0  0
   -2.4372    3.7619   29.0309 C   0  0  0  0  0  0  0  0  0  0  0  0
    5.4615    1.7522   22.6163 N   0  0  0  0  0  0  0  0  0  0  0  0
    5.6836   -1.2126   22.9642 H   0  0  0  0  0  0  0  0  0  0  0  0
    6.5767   -0.3071   24.1969 H   0  0  0  0  0  0  0  0  0  0  0  0
    7.3146   -1.7103   23.4197 H   0  0  0  0  0  0  0  0  0  0  0  0
    7.3749   -0.5402   21.2516 H   0  0  0  0  0  0  0  0  0  0  0  0
    8.2452    0.3946   22.4962 H   0  0  0  0  0  0  0  0  0  0  0  0
    6.8500    1.8172   19.7046 H   0  0  0  0  0  0  0  0  0  0  0  0
    3.6019    4.4737   22.1793 H   0  0  0  0  0  0  0  0  0  0  0  0
    2.6902    2.9809   21.8629 H   0  0  0  0  0  0  0  0  0  0  0  0
    1.5506    4.2693   23.3157 H   0  0  0  0  0  0  0  0  0  0  0  0
    0.4250    4.8973   25.2125 H   0  0  0  0  0  0  0  0  0  0  0  0
    1.4587    4.9085   27.4565 H   0  0  0  0  0  0  0  0  0  0  0  0
    2.5787    5.5824   26.2634 H   0  0  0  0  0  0  0  0  0  0  0  0
    2.8190    3.9390   26.8684 H   0  0  0  0  0  0  0  0  0  0  0  0
    1.1814    2.0874   26.1809 H   0  0  0  0  0  0  0  0  0  0  0  0
   -0.0540    2.4448   24.9637 H   0  0  0  0  0  0  0  0  0  0  0  0
   -0.3227    3.3505   27.7816 H   0  0  0  0  0  0  0  0  0  0  0  0
   -3.6554    0.6835   28.2661 H   0  0  0  0  0  0  0  0  0  0  0  0
   -4.8946    1.1463   30.3830 H   0  0  0  0  0  0  0  0  0  0  0  0
   -3.0939    4.8279   30.7892 H   0  0  0  0  0  0  0  0  0  0  0  0
   -1.8058    4.5737   28.6912 H   0  0  0  0  0  0  0  0  0  0  0  0
    5.1599    1.3939   23.5180 H   0  0  0  0  0  0  0  0  0  0  0  0
  1  2  1  0
  2  3  1  0
  3  4  2  0
  4  5  1  0
  5  6  2  0
  6  7  1  0
  7  8  1  0
  8  9  2  0
  8 10  1  0
 10 11  1  0
 11 12  1  0
 11 13  1  0
 13 14  1  0
 14 15  1  0
 15 16  2  0
 15 17  1  0
 17 18  2  0
 18 19  1  0
 19 20  2  0
 20 21  1  0
 21 22  2  0
  6 23  1  0
 23  3  1  0
 22 17  1  0
  1 24  1  0
  1 25  1  0
  1 26  1  0
  2 27  1  0
  2 28  1  0
  4 29  1  0
  7 30  1  0
  7 31  1  0
 10 32  1  0
 11 33  1  0
 12 34  1  0
 12 35  1  0
 12 36  1  0
 13 37  1  0
 13 38  1  0
 14 39  1  0
 18 40  1  0
 19 41  1  0
 21 42  1  0
 22 43  1  0
 23 44  1  0
M  END
>  <Energy>  (790) 
23.157063089176795

>  <compound_id>  (790) 
11943

>  <target_id>  (790) 
1

>  <reference_id>  (790) 
80

>  <inspiration_ids>  (790) 
[80, 7]

>  <energy_score>  (790) 
-20.8357450261243

>  <distance_score>  (790) 
14.073753022078918

>  <path>  (790) 
/opt/xchem-fragalysis-2/maxwin/BulkDock/SCRATCH/511020/C11943-P80/C11943-P80.minimised.mol

>  <scratch_subdir>  (790) 
/opt/xchem-fragalysis-2/maxwin/BulkDock/SCRATCH/511020/C11943-P80

>  <fragmenstein_runtime>  (790) 
22.072924613952637

>  <fragmenstein_outcome>  (790) 
too moved

>  <fragmenstein_mode>  (790) 
expansion

>  <fragmenstein_error>  (790) 


$$$$
C11943-P7
     RDKit          3D

 44 45  0  0  0  0  0  0  0  0999 V2000
    4.6256   -1.8941   23.9838 C   0  0  0  0  0  0  0  0  0  0  0  0
    3.2303   -2.6317   24.0075 C   0  0  0  0  0  0  0  0  0  0  0  0
    2.2644   -3.3846   22.7070 C   0  0  0  0  0  0  0  0  0  0  0  0
    1.5758   -4.5701   22.4473 C   0  0  0  0  0  0  0  0  0  0  0  0
    0.4670   -4.4550   23.1326 N   0  0  0  0  0  0  0  0  0  0  0  0
    0.0569   -2.9246   22.9435 C   0  0  0  0  0  0  0  0  0  0  0  0
   -1.7250   -2.2634   23.0858 C   0  0  0  0  0  0  0  0  0  0  0  0
   -3.4499   -2.3877   23.0070 C   0  0  0  0  0  0  0  0  0  0  0  0
   -3.8912   -2.2389   21.9021 O   0  0  0  0  0  0  0  0  0  0  0  0
   -4.1201   -2.5506   24.2612 N   0  0  0  0  0  0  0  0  0  0  0  0
   -5.5524   -2.4903   24.6083 C   0  0  0  0  0  0  0  0  0  0  0  0
   -6.2958   -1.4654   23.7403 C   0  0  0  0  0  0  0  0  0  0  0  0
   -5.8097   -2.1602   26.0961 C   0  0  0  0  0  0  0  0  0  0  0  0
   -7.0799   -2.6769   26.5734 N   0  0  0  0  0  0  0  0  0  0  0  0
   -7.4133   -3.9221   27.1880 C   0  0  0  0  0  0  0  0  0  0  0  0
   -6.7190   -4.8303   27.5402 O   0  0  0  0  0  0  0  0  0  0  0  0
   -8.8738   -4.1009   27.4727 C   0  0  0  0  0  0  0  0  0  0  0  0
   -9.6792   -3.0786   27.9769 C   0  0  0  0  0  0  0  0  0  0  0  0
  -10.9915   -3.3907   28.2991 C   0  0  0  0  0  0  0  0  0  0  0  0
  -11.5268   -4.6231   28.1834 N   0  0  0  0  0  0  0  0  0  0  0  0
  -10.7295   -5.5900   27.6833 C   0  0  0  0  0  0  0  0  0  0  0  0
   -9.4127   -5.3817   27.3165 C   0  0  0  0  0  0  0  0  0  0  0  0
    1.0341   -2.9927   22.0577 N   0  0  0  0  0  0  0  0  0  0  0  0
    4.5688   -0.9707   24.5806 H   0  0  0  0  0  0  0  0  0  0  0  0
    5.0537   -1.6437   23.0130 H   0  0  0  0  0  0  0  0  0  0  0  0
    5.3982   -2.4070   24.5491 H   0  0  0  0  0  0  0  0  0  0  0  0
    3.2848   -3.3456   24.8337 H   0  0  0  0  0  0  0  0  0  0  0  0
    2.6853   -1.7992   24.4329 H   0  0  0  0  0  0  0  0  0  0  0  0
    1.5479   -5.2151   21.5689 H   0  0  0  0  0  0  0  0  0  0  0  0
   -1.7084   -1.3387   23.5965 H   0  0  0  0  0  0  0  0  0  0  0  0
   -1.6655   -2.0860   22.0803 H   0  0  0  0  0  0  0  0  0  0  0  0
   -3.4360   -2.7348   24.9759 H   0  0  0  0  0  0  0  0  0  0  0  0
   -5.9744   -3.4695   24.3562 H   0  0  0  0  0  0  0  0  0  0  0  0
   -7.3528   -1.4046   24.0206 H   0  0  0  0  0  0  0  0  0  0  0  0
   -6.2599   -1.7418   22.6821 H   0  0  0  0  0  0  0  0  0  0  0  0
   -5.8579   -0.4666   23.8405 H   0  0  0  0  0  0  0  0  0  0  0  0
   -5.7968   -1.0797   26.2752 H   0  0  0  0  0  0  0  0  0  0  0  0
   -5.0367   -2.6026   26.7258 H   0  0  0  0  0  0  0  0  0  0  0  0
   -7.9183   -2.1152   26.4902 H   0  0  0  0  0  0  0  0  0  0  0  0
   -9.3053   -2.0778   28.1536 H   0  0  0  0  0  0  0  0  0  0  0  0
  -11.6768   -2.6392   28.6745 H   0  0  0  0  0  0  0  0  0  0  0  0
  -11.1884   -6.5707   27.5921 H   0  0  0  0  0  0  0  0  0  0  0  0
   -8.8106   -6.2051   26.9456 H   0  0  0  0  0  0  0  0  0  0  0  0
    0.8091   -3.2394   21.0926 H   0  0  0  0  0  0  0  0  0  0  0  0
  1  2  1  0
  2  3  1  0
  3  4  2  0
  4  5  1  0
  5  6  2  0
  6  7  1  0
  7  8  1  0
  8  9  2  0
  8 10  1  0
 10 11  1  0
 11 12  1  0
 11 13  1  0
 13 14  1  0
 14 15  1  0
 15 16  2  0
 15 17  1  0
 17 18  2  0
 18 19  1  0
 19 20  2  0
 20 21  1  0
 21 22  2  0
  6 23  1  0
 23  3  1  0
 22 17  1  0
  1 24  1  0
  1 25  1  0
  1 26  1  0
  2 27  1  0
  2 28  1  0
  4 29  1  0
  7 30  1  0
  7 31  1  0
 10 32  1  0
 11 33  1  0
 12 34  1  0
 12 35  1  0
 12 36  1  0
 13 37  1  0
 13 38  1  0
 14 39  1  0
 18 40  1  0
 19 41  1  0
 21 42  1  0
 22 43  1  0
 23 44  1  0
M  END
>  <Energy>  (791) 
334.81998756719793

>  <compound_id>  (791) 
11943

>  <target_id>  (791) 
1

>  <reference_id>  (791) 
7

>  <inspiration_ids>  (791) 
[80, 7]

>  <energy_score>  (791) 
290.8271794519002

>  <distance_score>  (791) 
12.734147285382932

>  <path>  (791) 
/opt/xchem-fragalysis-2/maxwin/BulkDock/SCRATCH/511020/C11943-P7/C11943-P7.minimised.mol

>  <scratch_subdir>  (791) 
/opt/xchem-fragalysis-2/maxwin/BulkDock/SCRATCH/511020/C11943-P7

>  <fragmenstein_runtime>  (791) 
17.912768602371216

>  <fragmenstein_outcome>  (791) 
too moved

>  <fragmenstein_mode>  (791) 
expansion

>  <fragmenstein_error>  (791) 


$$$$
C9625-P80
     RDKit          3D

 44 45  0  0  0  0  0  0  0  0999 V2000
   10.9687   -1.5791   26.1416 C   0  0  0  0  0  0  0  0  0  0  0  0
   10.2250   -2.2070   24.9725 C   0  0  0  0  0  0  0  0  0  0  0  0
    8.9329   -1.5130   24.7157 C   0  0  0  0  0  0  0  0  0  0  0  0
    8.6211   -0.4033   23.9644 C   0  0  0  0  0  0  0  0  0  0  0  0
    7.2757   -0.1581   23.9928 N   0  0  0  0  0  0  0  0  0  0  0  0
    6.7484   -1.0235   24.8505 C   0  0  0  0  0  0  0  0  0  0  0  0
    5.2838   -1.1606   25.2817 C   0  0  0  0  0  0  0  0  0  0  0  0
    5.0260   -1.2359   26.8220 C   0  0  0  0  0  0  0  0  0  0  0  0
    5.9455   -1.1335   27.5885 O   0  0  0  0  0  0  0  0  0  0  0  0
    3.5855   -1.3951   27.0717 N   0  0  0  0  0  0  0  0  0  0  0  0
    2.8098   -1.3807   28.3408 C   0  0  0  0  0  0  0  0  0  0  0  0
    2.8894    0.0199   28.9504 C   0  0  0  0  0  0  0  0  0  0  0  0
    1.3210   -1.8270   28.1683 C   0  0  0  0  0  0  0  0  0  0  0  0
    0.3964   -1.7437   29.3173 N   0  0  0  0  0  0  0  0  0  0  0  0
   -0.5176   -2.7293   29.8805 C   0  0  0  0  0  0  0  0  0  0  0  0
   -0.6903   -3.8835   29.6009 O   0  0  0  0  0  0  0  0  0  0  0  0
   -1.5203   -2.1962   30.9698 C   0  0  0  0  0  0  0  0  0  0  0  0
   -1.7893   -0.8503   31.2127 C   0  0  0  0  0  0  0  0  0  0  0  0
   -2.7473   -0.4960   32.1820 C   0  0  0  0  0  0  0  0  0  0  0  0
   -3.4437   -1.4792   32.8741 C   0  0  0  0  0  0  0  0  0  0  0  0
   -3.1446   -2.7921   32.5737 C   0  0  0  0  0  0  0  0  0  0  0  0
   -2.2156   -3.1608   31.6533 N   0  0  0  0  0  0  0  0  0  0  0  0
    7.7349   -1.8834   25.2804 N   0  0  0  0  0  0  0  0  0  0  0  0
   11.2005   -0.5267   25.9448 H   0  0  0  0  0  0  0  0  0  0  0  0
   10.3748   -1.6260   27.0609 H   0  0  0  0  0  0  0  0  0  0  0  0
   11.9111   -2.1069   26.3188 H   0  0  0  0  0  0  0  0  0  0  0  0
   10.8611   -2.1713   24.0855 H   0  0  0  0  0  0  0  0  0  0  0  0
   10.0413   -3.2652   25.1925 H   0  0  0  0  0  0  0  0  0  0  0  0
    9.2956    0.2178   23.3897 H   0  0  0  0  0  0  0  0  0  0  0  0
    4.7291   -0.2914   24.9351 H   0  0  0  0  0  0  0  0  0  0  0  0
    4.8469   -2.0395   24.8004 H   0  0  0  0  0  0  0  0  0  0  0  0
    3.1052   -1.5345   26.1810 H   0  0  0  0  0  0  0  0  0  0  0  0
    3.3169   -2.0759   29.0199 H   0  0  0  0  0  0  0  0  0  0  0  0
    2.4152    0.0541   29.9359 H   0  0  0  0  0  0  0  0  0  0  0  0
    2.3991    0.7573   28.3052 H   0  0  0  0  0  0  0  0  0  0  0  0
    3.9308    0.3351   29.0774 H   0  0  0  0  0  0  0  0  0  0  0  0
    0.8620   -1.2001   27.3984 H   0  0  0  0  0  0  0  0  0  0  0  0
    1.2958   -2.8600   27.8058 H   0  0  0  0  0  0  0  0  0  0  0  0
    0.3312   -0.8914   29.8509 H   0  0  0  0  0  0  0  0  0  0  0  0
   -1.3024   -0.0593   30.6567 H   0  0  0  0  0  0  0  0  0  0  0  0
   -2.9442    0.5520   32.3837 H   0  0  0  0  0  0  0  0  0  0  0  0
   -4.1870   -1.2329   33.6227 H   0  0  0  0  0  0  0  0  0  0  0  0
   -3.6407   -3.6170   33.0797 H   0  0  0  0  0  0  0  0  0  0  0  0
    7.5589   -2.6322   25.9400 H   0  0  0  0  0  0  0  0  0  0  0  0
  1  2  1  0
  2  3  1  0
  3  4  2  0
  4  5  1  0
  5  6  2  0
  6  7  1  0
  7  8  1  0
  8  9  2  0
  8 10  1  0
 10 11  1  0
 11 12  1  0
 11 13  1  0
 13 14  1  0
 14 15  1  0
 15 16  2  0
 15 17  1  0
 17 18  2  0
 18 19  1  0
 19 20  2  0
 20 21  1  0
 21 22  2  0
  6 23  1  0
 23  3  1  0
 22 17  1  0
  1 24  1  0
  1 25  1  0
  1 26  1  0
  2 27  1  0
  2 28  1  0
  4 29  1  0
  7 30  1  0
  7 31  1  0
 10 32  1  0
 11 33  1  0
 12 34  1  0
 12 35  1  0
 12 36  1  0
 13 37  1  0
 13 38  1  0
 14 39  1  0
 18 40  1  0
 19 41  1  0
 20 42  1  0
 21 43  1  0
 23 44  1  0
M  END
>  <Energy>  (792) 
89.415974616177479

>  <compound_id>  (792) 
9625

>  <target_id>  (792) 
1

>  <reference_id>  (792) 
80

>  <inspiration_ids>  (792) 
[80, 7]

>  <energy_score>  (792) 
10.664726408412946

>  <distance_score>  (792) 
11.950067662581725

>  <path>  (792) 
/opt/xchem-fragalysis-2/maxwin/BulkDock/SCRATCH/511020/C9625-P80/C9625-P80.minimised.mol

>  <scratch_subdir>  (792) 
/opt/xchem-fragalysis-2/maxwin/BulkDock/SCRATCH/511020/C9625-P80

>  <fragmenstein_runtime>  (792) 
22.540648221969604

>  <fragmenstein_outcome>  (792) 
too moved

>  <fragmenstein_mode>  (792) 
expansion

>  <fragmenstein_error>  (792) 


$$$$
C9625-P7
     RDKit          3D

 44 45  0  0  0  0  0  0  0  0999 V2000
    5.8381    2.6220   17.9970 C   0  0  0  0  0  0  0  0  0  0  0  0
    6.7094    1.9308   19.0428 C   0  0  0  0  0  0  0  0  0  0  0  0
    6.0445    1.7150   20.3602 C   0  0  0  0  0  0  0  0  0  0  0  0
    4.9874    2.3743   20.9304 C   0  0  0  0  0  0  0  0  0  0  0  0
    4.4154    1.6010   21.9042 N   0  0  0  0  0  0  0  0  0  0  0  0
    5.2460    0.5847   22.1907 C   0  0  0  0  0  0  0  0  0  0  0  0
    5.2432   -0.4347   23.6316 C   0  0  0  0  0  0  0  0  0  0  0  0
    4.9632   -0.1077   25.2323 C   0  0  0  0  0  0  0  0  0  0  0  0
    5.9029    0.4075   25.7917 O   0  0  0  0  0  0  0  0  0  0  0  0
    3.6946   -0.5623   25.7533 N   0  0  0  0  0  0  0  0  0  0  0  0
    3.0989   -0.4522   27.1258 C   0  0  0  0  0  0  0  0  0  0  0  0
    2.5050    0.9412   27.3430 C   0  0  0  0  0  0  0  0  0  0  0  0
    2.1704   -1.6107   27.6157 C   0  0  0  0  0  0  0  0  0  0  0  0
    1.1065   -1.3620   28.6204 N   0  0  0  0  0  0  0  0  0  0  0  0
    0.5293   -2.2351   29.6348 C   0  0  0  0  0  0  0  0  0  0  0  0
    0.8249   -3.3504   29.9659 O   0  0  0  0  0  0  0  0  0  0  0  0
   -0.6876   -1.6636   30.4230 C   0  0  0  0  0  0  0  0  0  0  0  0
   -0.7914   -0.3302   30.8037 C   0  0  0  0  0  0  0  0  0  0  0  0
   -1.8521    0.0669   31.6393 C   0  0  0  0  0  0  0  0  0  0  0  0
   -2.7868   -0.8633   32.0798 C   0  0  0  0  0  0  0  0  0  0  0  0
   -2.6273   -2.1677   31.6561 C   0  0  0  0  0  0  0  0  0  0  0  0
   -1.6169   -2.5794   30.8483 N   0  0  0  0  0  0  0  0  0  0  0  0
    6.2725    0.6442   21.2251 N   0  0  0  0  0  0  0  0  0  0  0  0
    4.9688    2.0174   17.7253 H   0  0  0  0  0  0  0  0  0  0  0  0
    5.4825    3.5969   18.3461 H   0  0  0  0  0  0  0  0  0  0  0  0
    6.4187    2.7889   17.0834 H   0  0  0  0  0  0  0  0  0  0  0  0
    7.0162    0.9725   18.6164 H   0  0  0  0  0  0  0  0  0  0  0  0
    7.5673    2.5831   19.1996 H   0  0  0  0  0  0  0  0  0  0  0  0
    4.4962    3.2783   20.5973 H   0  0  0  0  0  0  0  0  0  0  0  0
    6.2960   -0.3591   23.8036 H   0  0  0  0  0  0  0  0  0  0  0  0
    4.9635   -1.4585   23.3882 H   0  0  0  0  0  0  0  0  0  0  0  0
    3.1105   -0.8697   24.9773 H   0  0  0  0  0  0  0  0  0  0  0  0
    3.9783   -0.4824   27.7843 H   0  0  0  0  0  0  0  0  0  0  0  0
    1.5423    1.0669   26.8439 H   0  0  0  0  0  0  0  0  0  0  0  0
    3.1789    1.7190   26.9672 H   0  0  0  0  0  0  0  0  0  0  0  0
    2.3481    1.1314   28.4104 H   0  0  0  0  0  0  0  0  0  0  0  0
    2.7904   -2.4288   28.0015 H   0  0  0  0  0  0  0  0  0  0  0  0
    1.6468   -2.0290   26.7721 H   0  0  0  0  0  0  0  0  0  0  0  0
    0.5519   -0.5203   28.5551 H   0  0  0  0  0  0  0  0  0  0  0  0
   -0.0346    0.3915   30.5167 H   0  0  0  0  0  0  0  0  0  0  0  0
   -1.9162    1.1002   31.9665 H   0  0  0  0  0  0  0  0  0  0  0  0
   -3.6028   -0.5853   32.7352 H   0  0  0  0  0  0  0  0  0  0  0  0
   -3.3161   -2.9502   31.9605 H   0  0  0  0  0  0  0  0  0  0  0  0
    6.8166   -0.1610   20.9704 H   0  0  0  0  0  0  0  0  0  0  0  0
  1  2  1  0
  2  3  1  0
  3  4  2  0
  4  5  1  0
  5  6  2  0
  6  7  1  0
  7  8  1  0
  8  9  2  0
  8 10  1  0
 10 11  1  0
 11 12  1  0
 11 13  1  0
 13 14  1  0
 14 15  1  0
 15 16  2  0
 15 17  1  0
 17 18  2  0
 18 19  1  0
 19 20  2  0
 20 21  1  0
 21 22  2  0
  6 23  1  0
 23  3  1  0
 22 17  1  0
  1 24  1  0
  1 25  1  0
  1 26  1  0
  2 27  1  0
  2 28  1  0
  4 29  1  0
  7 30  1  0
  7 31  1  0
 10 32  1  0
 11 33  1  0
 12 34  1  0
 12 35  1  0
 12 36  1  0
 13 37  1  0
 13 38  1  0
 14 39  1  0
 18 40  1  0
 19 41  1  0
 20 42  1  0
 21 43  1  0
 23 44  1  0
M  END
>  <Energy>  (793) 
149.16552177742611

>  <compound_id>  (793) 
9625

>  <target_id>  (793) 
1

>  <reference_id>  (793) 
7

>  <inspiration_ids>  (793) 
[80, 7]

>  <energy_score>  (793) 
70.4142735696646

>  <distance_score>  (793) 
12.474593337590687

>  <path>  (793) 
/opt/xchem-fragalysis-2/maxwin/BulkDock/SCRATCH/511020/C9625-P7/C9625-P7.minimised.mol

>  <scratch_subdir>  (793) 
/opt/xchem-fragalysis-2/maxwin/BulkDock/SCRATCH/511020/C9625-P7

>  <fragmenstein_runtime>  (793) 
14.563745260238647

>  <fragmenstein_outcome>  (793) 
too moved

>  <fragmenstein_mode>  (793) 
expansion

>  <fragmenstein_error>  (793) 


$$$$
C11895-P80
     RDKit          3D

 44 45  0  0  0  0  0  0  0  0999 V2000
    7.3133    3.5453   17.4386 C   0  0  0  0  0  0  0  0  0  0  0  0
    8.1981    2.3336   17.2154 C   0  0  0  0  0  0  0  0  0  0  0  0
    7.9989    1.1124   18.0433 C   0  0  0  0  0  0  0  0  0  0  0  0
    8.1354   -0.1918   17.8776 C   0  0  0  0  0  0  0  0  0  0  0  0
    7.9964   -1.0352   19.4540 N   0  0  0  0  0  0  0  0  0  0  0  0
    7.0981   -0.6614   20.5212 C   0  0  0  0  0  0  0  0  0  0  0  0
    5.6219   -1.5678   21.7187 C   0  0  0  0  0  0  0  0  0  0  0  0
    4.9264   -1.7439   23.6577 C   0  0  0  0  0  0  0  0  0  0  0  0
    5.7424   -1.4012   24.4076 O   0  0  0  0  0  0  0  0  0  0  0  0
    3.3730   -2.1656   24.1970 N   0  0  0  0  0  0  0  0  0  0  0  0
    2.5816   -2.0763   25.8742 C   0  0  0  0  0  0  0  0  0  0  0  0
    0.6226   -2.4539   26.1341 C   0  0  0  0  0  0  0  0  0  0  0  0
    3.3066   -2.1650   27.2517 C   0  0  0  0  0  0  0  0  0  0  0  0
    2.3119   -2.1906   28.3860 N   0  0  0  0  0  0  0  0  0  0  0  0
    1.4830   -1.1385   28.9499 C   0  0  0  0  0  0  0  0  0  0  0  0
    1.4388    0.0354   28.7085 O   0  0  0  0  0  0  0  0  0  0  0  0
    0.4031   -1.5864   29.9483 C   0  0  0  0  0  0  0  0  0  0  0  0
    0.4736   -2.6875   30.8034 C   0  0  0  0  0  0  0  0  0  0  0  0
   -0.5954   -2.9884   31.6747 C   0  0  0  0  0  0  0  0  0  0  0  0
   -1.7214   -2.1795   31.6791 C   0  0  0  0  0  0  0  0  0  0  0  0
   -1.8409   -1.1033   30.8825 N   0  0  0  0  0  0  0  0  0  0  0  0
   -0.7829   -0.8353   30.0509 C   0  0  0  0  0  0  0  0  0  0  0  0
    7.0874    0.5012   19.3649 N   0  0  0  0  0  0  0  0  0  0  0  0
    7.3694    3.9271   18.4585 H   0  0  0  0  0  0  0  0  0  0  0  0
    6.2650    3.3450   17.2026 H   0  0  0  0  0  0  0  0  0  0  0  0
    7.6339    4.3566   16.7751 H   0  0  0  0  0  0  0  0  0  0  0  0
    9.2443    2.6480   17.2940 H   0  0  0  0  0  0  0  0  0  0  0  0
    8.1018    2.0461   16.1633 H   0  0  0  0  0  0  0  0  0  0  0  0
    8.4488   -0.6551   16.9301 H   0  0  0  0  0  0  0  0  0  0  0  0
    5.5516   -2.5692   21.2611 H   0  0  0  0  0  0  0  0  0  0  0  0
    4.9500   -0.6819   21.7147 H   0  0  0  0  0  0  0  0  0  0  0  0
    2.7977   -2.3507   23.3948 H   0  0  0  0  0  0  0  0  0  0  0  0
    2.5271   -0.9826   25.8347 H   0  0  0  0  0  0  0  0  0  0  0  0
   -0.0588   -2.8435   24.3080 H   0  0  0  0  0  0  0  0  0  0  0  0
    0.6473   -3.2482   26.9558 H   0  0  0  0  0  0  0  0  0  0  0  0
    0.2949   -1.5474   26.7394 H   0  0  0  0  0  0  0  0  0  0  0  0
    3.9383   -1.2818   27.3987 H   0  0  0  0  0  0  0  0  0  0  0  0
    3.9353   -3.0372   27.3323 H   0  0  0  0  0  0  0  0  0  0  0  0
    2.0224   -3.0786   28.7675 H   0  0  0  0  0  0  0  0  0  0  0  0
    1.3645   -3.3075   30.8345 H   0  0  0  0  0  0  0  0  0  0  0  0
   -0.5322   -3.8370   32.3487 H   0  0  0  0  0  0  0  0  0  0  0  0
   -2.5604   -2.3742   32.3398 H   0  0  0  0  0  0  0  0  0  0  0  0
   -0.9261    0.0479   29.4296 H   0  0  0  0  0  0  0  0  0  0  0  0
    6.3415    0.0503   18.8986 H   0  0  0  0  0  0  0  0  0  0  0  0
  1  2  1  0
  2  3  1  0
  3  4  2  0
  4  5  1  0
  5  6  2  0
  6  7  1  0
  7  8  1  0
  8  9  2  0
  8 10  1  0
 10 11  1  0
 11 12  1  0
 11 13  1  0
 13 14  1  0
 14 15  1  0
 15 16  2  0
 15 17  1  0
 17 18  2  0
 18 19  1  0
 19 20  2  0
 20 21  1  0
 21 22  2  0
  6 23  1  0
 23  3  1  0
 22 17  1  0
  1 24  1  0
  1 25  1  0
  1 26  1  0
  2 27  1  0
  2 28  1  0
  4 29  1  0
  7 30  1  0
  7 31  1  0
 10 32  1  0
 11 33  1  0
 12 34  1  0
 12 35  1  0
 12 36  1  0
 13 37  1  0
 13 38  1  0
 14 39  1  0
 18 40  1  0
 19 41  1  0
 20 42  1  0
 22 43  1  0
 23 44  1  0
M  END
>  <Energy>  (794) 
970.28238194656262

>  <compound_id>  (794) 
11895

>  <target_id>  (794) 
1

>  <reference_id>  (794) 
80

>  <inspiration_ids>  (794) 
[80, 7]

>  <energy_score>  (794) 
910.7605133355551

>  <distance_score>  (794) 
10.907447787503969

>  <path>  (794) 
/opt/xchem-fragalysis-2/maxwin/BulkDock/SCRATCH/511020/C11895-P80/C11895-P80.minimised.mol

>  <scratch_subdir>  (794) 
/opt/xchem-fragalysis-2/maxwin/BulkDock/SCRATCH/511020/C11895-P80

>  <fragmenstein_runtime>  (794) 
18.91295599937439

>  <fragmenstein_outcome>  (794) 
too moved

>  <fragmenstein_mode>  (794) 
expansion

>  <fragmenstein_error>  (794) 


$$$$
C11895-P7
     RDKit          3D

 44 45  0  0  0  0  0  0  0  0999 V2000
    9.8219    1.4492   15.7143 C   0  0  0  0  0  0  0  0  0  0  0  0
    9.2515    0.0443   15.6118 C   0  0  0  0  0  0  0  0  0  0  0  0
    8.0875   -0.1973   16.5129 C   0  0  0  0  0  0  0  0  0  0  0  0
    6.8701   -0.8138   16.3032 C   0  0  0  0  0  0  0  0  0  0  0  0
    6.1152   -0.9855   17.6723 N   0  0  0  0  0  0  0  0  0  0  0  0
    6.9338   -0.4409   18.7256 C   0  0  0  0  0  0  0  0  0  0  0  0
    6.6204   -0.3586   20.5634 C   0  0  0  0  0  0  0  0  0  0  0  0
    5.5600   -1.6133   21.7836 C   0  0  0  0  0  0  0  0  0  0  0  0
    5.6049   -2.7552   21.3412 O   0  0  0  0  0  0  0  0  0  0  0  0
    4.8145   -1.1381   23.3940 N   0  0  0  0  0  0  0  0  0  0  0  0
    4.2688   -1.9326   24.4639 C   0  0  0  0  0  0  0  0  0  0  0  0
    3.3940   -3.0409   24.5852 C   0  0  0  0  0  0  0  0  0  0  0  0
    3.8996   -0.8956   25.7513 C   0  0  0  0  0  0  0  0  0  0  0  0
    2.7217   -1.0913   26.6577 N   0  0  0  0  0  0  0  0  0  0  0  0
    2.2930   -0.3563   27.8302 C   0  0  0  0  0  0  0  0  0  0  0  0
    2.8154    0.5477   28.4204 O   0  0  0  0  0  0  0  0  0  0  0  0
    0.9667   -0.7971   28.4692 C   0  0  0  0  0  0  0  0  0  0  0  0
    0.4502   -2.0938   28.4491 C   0  0  0  0  0  0  0  0  0  0  0  0
   -0.7345   -2.4082   29.1446 C   0  0  0  0  0  0  0  0  0  0  0  0
   -1.3829   -1.4189   29.8642 C   0  0  0  0  0  0  0  0  0  0  0  0
   -0.9338   -0.1522   29.9241 N   0  0  0  0  0  0  0  0  0  0  0  0
    0.2264    0.1166   29.2404 C   0  0  0  0  0  0  0  0  0  0  0  0
    7.9800    0.2822   17.8344 N   0  0  0  0  0  0  0  0  0  0  0  0
   10.5957    1.5990   14.9547 H   0  0  0  0  0  0  0  0  0  0  0  0
   10.2772    1.6275   16.6906 H   0  0  0  0  0  0  0  0  0  0  0  0
    9.0523    2.2124   15.5754 H   0  0  0  0  0  0  0  0  0  0  0  0
   10.0387   -0.6853   15.8327 H   0  0  0  0  0  0  0  0  0  0  0  0
    8.9446   -0.1343   14.5767 H   0  0  0  0  0  0  0  0  0  0  0  0
    6.4442   -1.2760   15.4202 H   0  0  0  0  0  0  0  0  0  0  0  0
    7.1417    0.5972   20.7344 H   0  0  0  0  0  0  0  0  0  0  0  0
    7.4672   -0.9815   20.6220 H   0  0  0  0  0  0  0  0  0  0  0  0
    4.8221   -0.1016   23.4898 H   0  0  0  0  0  0  0  0  0  0  0  0
    5.2339   -2.2797   24.8237 H   0  0  0  0  0  0  0  0  0  0  0  0
    2.8341   -3.1608   23.6631 H   0  0  0  0  0  0  0  0  0  0  0  0
    4.0290   -3.8536   24.8875 H   0  0  0  0  0  0  0  0  0  0  0  0
    2.8437   -3.0621   25.5098 H   0  0  0  0  0  0  0  0  0  0  0  0
    4.7757   -0.8761   26.4127 H   0  0  0  0  0  0  0  0  0  0  0  0
    3.7966    0.1292   25.3809 H   0  0  0  0  0  0  0  0  0  0  0  0
    1.9883   -1.7355   26.3848 H   0  0  0  0  0  0  0  0  0  0  0  0
    0.9752   -2.8856   27.9224 H   0  0  0  0  0  0  0  0  0  0  0  0
   -1.1295   -3.4176   29.1199 H   0  0  0  0  0  0  0  0  0  0  0  0
   -2.2854   -1.6265   30.4275 H   0  0  0  0  0  0  0  0  0  0  0  0
    0.5707    1.1447   29.3443 H   0  0  0  0  0  0  0  0  0  0  0  0
    7.9616    1.2809   17.9473 H   0  0  0  0  0  0  0  0  0  0  0  0
  1  2  1  0
  2  3  1  0
  3  4  2  0
  4  5  1  0
  5  6  2  0
  6  7  1  0
  7  8  1  0
  8  9  2  0
  8 10  1  0
 10 11  1  0
 11 12  1  0
 11 13  1  0
 13 14  1  0
 14 15  1  0
 15 16  2  0
 15 17  1  0
 17 18  2  0
 18 19  1  0
 19 20  2  0
 20 21  1  0
 21 22  2  0
  6 23  1  0
 23  3  1  0
 22 17  1  0
  1 24  1  0
  1 25  1  0
  1 26  1  0
  2 27  1  0
  2 28  1  0
  4 29  1  0
  7 30  1  0
  7 31  1  0
 10 32  1  0
 11 33  1  0
 12 34  1  0
 12 35  1  0
 12 36  1  0
 13 37  1  0
 13 38  1  0
 14 39  1  0
 18 40  1  0
 19 41  1  0
 20 42  1  0
 22 43  1  0
 23 44  1  0
M  END
>  <Energy>  (795) 
343.67405528258377

>  <compound_id>  (795) 
11895

>  <target_id>  (795) 
1

>  <reference_id>  (795) 
7

>  <inspiration_ids>  (795) 
[80, 7]

>  <energy_score>  (795) 
284.1521866715717

>  <distance_score>  (795) 
11.489701505445394

>  <path>  (795) 
/opt/xchem-fragalysis-2/maxwin/BulkDock/SCRATCH/511020/C11895-P7/C11895-P7.minimised.mol

>  <scratch_subdir>  (795) 
/opt/xchem-fragalysis-2/maxwin/BulkDock/SCRATCH/511020/C11895-P7

>  <fragmenstein_runtime>  (795) 
19.690096616744995

>  <fragmenstein_outcome>  (795) 
too moved

>  <fragmenstein_mode>  (795) 
expansion

>  <fragmenstein_error>  (795) 


$$$$
C8990-P80
     RDKit          3D

 41 42  0  0  0  0  0  0  0  0999 V2000
   -6.2494   -0.2500   33.5130 C   0  0  0  0  0  0  0  0  0  0  0  0
   -6.2258   -0.6544   32.0475 C   0  0  0  0  0  0  0  0  0  0  0  0
   -4.8705   -1.1178   31.5952 C   0  0  0  0  0  0  0  0  0  0  0  0
   -3.8713   -1.8126   32.2359 C   0  0  0  0  0  0  0  0  0  0  0  0
   -2.7777   -1.9914   31.4165 N   0  0  0  0  0  0  0  0  0  0  0  0
   -3.0463   -1.3867   30.2701 C   0  0  0  0  0  0  0  0  0  0  0  0
   -2.1009   -1.0473   29.0905 C   0  0  0  0  0  0  0  0  0  0  0  0
   -1.0880   -2.1291   28.5547 C   0  0  0  0  0  0  0  0  0  0  0  0
   -0.9281   -3.1618   29.1462 O   0  0  0  0  0  0  0  0  0  0  0  0
   -0.5151   -1.6533   27.2649 N   0  0  0  0  0  0  0  0  0  0  0  0
    0.5022   -2.4672   26.0911 C   0  0  0  0  0  0  0  0  0  0  0  0
    2.0417   -1.8428   26.5626 C   0  0  0  0  0  0  0  0  0  0  0  0
   -0.0715   -2.9081   23.6962 C   0  0  0  0  0  0  0  0  0  0  0  0
    1.1017   -2.3210   22.5018 N   0  0  0  0  0  0  0  0  0  0  0  0
    0.9213   -1.6184   21.2767 C   0  0  0  0  0  0  0  0  0  0  0  0
   -0.0656   -1.1706   20.7705 O   0  0  0  0  0  0  0  0  0  0  0  0
    2.2508   -1.4347   20.5936 C   0  0  0  0  0  0  0  0  0  0  0  0
    2.4097   -0.9282   19.3100 C   0  0  0  0  0  0  0  0  0  0  0  0
    4.0693   -0.8464   18.8731 S   0  0  0  0  0  0  0  0  0  0  0  0
    4.4771   -1.5081   20.3974 C   0  0  0  0  0  0  0  0  0  0  0  0
    3.4750   -1.7628   21.2106 N   0  0  0  0  0  0  0  0  0  0  0  0
   -4.3491   -0.8896   30.3352 N   0  0  0  0  0  0  0  0  0  0  0  0
   -7.2422    0.1164   33.7901 H   0  0  0  0  0  0  0  0  0  0  0  0
   -5.5246    0.5455   33.7165 H   0  0  0  0  0  0  0  0  0  0  0  0
   -6.0142   -1.0978   34.1654 H   0  0  0  0  0  0  0  0  0  0  0  0
   -6.5391    0.1993   31.4357 H   0  0  0  0  0  0  0  0  0  0  0  0
   -6.9496   -1.4595   31.8777 H   0  0  0  0  0  0  0  0  0  0  0  0
   -3.8683   -2.1847   33.2527 H   0  0  0  0  0  0  0  0  0  0  0  0
   -1.5044   -0.1790   29.3962 H   0  0  0  0  0  0  0  0  0  0  0  0
   -2.7294   -0.7452   28.2427 H   0  0  0  0  0  0  0  0  0  0  0  0
   -0.8011   -0.6984   27.1065 H   0  0  0  0  0  0  0  0  0  0  0  0
    0.5826   -3.3927   26.8318 H   0  0  0  0  0  0  0  0  0  0  0  0
    2.1020   -1.9130   27.6553 H   0  0  0  0  0  0  0  0  0  0  0  0
    2.1561   -0.7885   26.3035 H   0  0  0  0  0  0  0  0  0  0  0  0
    2.8637   -2.4345   26.1451 H   0  0  0  0  0  0  0  0  0  0  0  0
    0.3137   -3.9871   23.3128 H   0  0  0  0  0  0  0  0  0  0  0  0
   -0.9942   -2.4323   23.1768 H   0  0  0  0  0  0  0  0  0  0  0  0
    2.0951   -2.4769   22.6511 H   0  0  0  0  0  0  0  0  0  0  0  0
    1.6315   -0.6058   18.6319 H   0  0  0  0  0  0  0  0  0  0  0  0
    5.5029   -1.7000   20.6792 H   0  0  0  0  0  0  0  0  0  0  0  0
   -4.8024   -0.3694   29.5984 H   0  0  0  0  0  0  0  0  0  0  0  0
  1  2  1  0
  2  3  1  0
  3  4  2  0
  4  5  1  0
  5  6  2  0
  6  7  1  0
  7  8  1  0
  8  9  2  0
  8 10  1  0
 10 11  1  0
 11 12  1  0
 11 13  1  0
 13 14  1  0
 14 15  1  0
 15 16  2  0
 15 17  1  0
 17 18  2  0
 18 19  1  0
 19 20  1  0
 20 21  2  0
  6 22  1  0
 22  3  1  0
 21 17  1  0
  1 23  1  0
  1 24  1  0
  1 25  1  0
  2 26  1  0
  2 27  1  0
  4 28  1  0
  7 29  1  0
  7 30  1  0
 10 31  1  0
 11 32  1  0
 12 33  1  0
 12 34  1  0
 12 35  1  0
 13 36  1  0
 13 37  1  0
 14 38  1  0
 18 39  1  0
 20 40  1  0
 22 41  1  0
M  END
>  <Energy>  (796) 
558.99124188257292

>  <compound_id>  (796) 
8990

>  <target_id>  (796) 
1

>  <reference_id>  (796) 
80

>  <inspiration_ids>  (796) 
[80, 7]

>  <energy_score>  (796) 
451.6027999546711

>  <distance_score>  (796) 
12.182412835639168

>  <path>  (796) 
/opt/xchem-fragalysis-2/maxwin/BulkDock/SCRATCH/511020/C8990-P80/C8990-P80.minimised.mol

>  <scratch_subdir>  (796) 
/opt/xchem-fragalysis-2/maxwin/BulkDock/SCRATCH/511020/C8990-P80

>  <fragmenstein_runtime>  (796) 
16.65691828727722

>  <fragmenstein_outcome>  (796) 
too moved

>  <fragmenstein_mode>  (796) 
expansion

>  <fragmenstein_error>  (796) 


$$$$
C8990-P7
     RDKit          3D

 41 42  0  0  0  0  0  0  0  0999 V2000
   -5.8173    0.1032   35.4233 C   0  0  0  0  0  0  0  0  0  0  0  0
   -5.8937    0.5246   33.9646 C   0  0  0  0  0  0  0  0  0  0  0  0
   -5.1805   -0.4431   33.0790 C   0  0  0  0  0  0  0  0  0  0  0  0
   -5.6332   -1.5647   32.4269 C   0  0  0  0  0  0  0  0  0  0  0  0
   -4.6104   -2.2109   31.7773 N   0  0  0  0  0  0  0  0  0  0  0  0
   -3.5392   -1.4459   31.9239 C   0  0  0  0  0  0  0  0  0  0  0  0
   -2.1441   -1.8019   31.4342 C   0  0  0  0  0  0  0  0  0  0  0  0
   -1.3630   -0.7085   30.6602 C   0  0  0  0  0  0  0  0  0  0  0  0
   -1.5713    0.4493   30.8999 O   0  0  0  0  0  0  0  0  0  0  0  0
   -0.4012   -1.3384   29.7455 N   0  0  0  0  0  0  0  0  0  0  0  0
    0.6819   -0.7453   28.9031 C   0  0  0  0  0  0  0  0  0  0  0  0
    0.0845    0.2852   27.9519 C   0  0  0  0  0  0  0  0  0  0  0  0
    1.4889   -1.8586   28.1423 C   0  0  0  0  0  0  0  0  0  0  0  0
    2.4459   -1.4994   27.0883 N   0  0  0  0  0  0  0  0  0  0  0  0
    3.7909   -0.9798   27.1668 C   0  0  0  0  0  0  0  0  0  0  0  0
    4.4379   -0.6351   28.1118 O   0  0  0  0  0  0  0  0  0  0  0  0
    4.5202   -0.8916   25.8130 C   0  0  0  0  0  0  0  0  0  0  0  0
    4.0486   -1.1389   24.5292 C   0  0  0  0  0  0  0  0  0  0  0  0
    5.2428   -0.8134   23.3187 S   0  0  0  0  0  0  0  0  0  0  0  0
    6.3569   -0.4478   24.5567 C   0  0  0  0  0  0  0  0  0  0  0  0
    5.8885   -0.5143   25.7824 N   0  0  0  0  0  0  0  0  0  0  0  0
   -3.8554   -0.3471   32.7042 N   0  0  0  0  0  0  0  0  0  0  0  0
   -6.2783   -0.8786   35.5758 H   0  0  0  0  0  0  0  0  0  0  0  0
   -6.3425    0.8264   36.0550 H   0  0  0  0  0  0  0  0  0  0  0  0
   -4.7784    0.0430   35.7653 H   0  0  0  0  0  0  0  0  0  0  0  0
   -6.9450    0.5885   33.6621 H   0  0  0  0  0  0  0  0  0  0  0  0
   -5.4574    1.5232   33.8494 H   0  0  0  0  0  0  0  0  0  0  0  0
   -6.6448   -1.9420   32.4082 H   0  0  0  0  0  0  0  0  0  0  0  0
   -2.2407   -2.6887   30.7977 H   0  0  0  0  0  0  0  0  0  0  0  0
   -1.5334   -2.0837   32.3003 H   0  0  0  0  0  0  0  0  0  0  0  0
   -0.4446   -2.3444   29.8594 H   0  0  0  0  0  0  0  0  0  0  0  0
    1.3580   -0.2245   29.5910 H   0  0  0  0  0  0  0  0  0  0  0  0
   -0.6605   -0.1699   27.2932 H   0  0  0  0  0  0  0  0  0  0  0  0
   -0.4199    1.0838   28.5060 H   0  0  0  0  0  0  0  0  0  0  0  0
    0.8594    0.7564   27.3406 H   0  0  0  0  0  0  0  0  0  0  0  0
    0.7816   -2.5590   27.6880 H   0  0  0  0  0  0  0  0  0  0  0  0
    2.0541   -2.4306   28.8883 H   0  0  0  0  0  0  0  0  0  0  0  0
    2.2486   -1.7665   26.1257 H   0  0  0  0  0  0  0  0  0  0  0  0
    3.0769   -1.4658   24.2027 H   0  0  0  0  0  0  0  0  0  0  0  0
    7.3820   -0.1693   24.3502 H   0  0  0  0  0  0  0  0  0  0  0  0
   -3.2128    0.4007   32.9357 H   0  0  0  0  0  0  0  0  0  0  0  0
  1  2  1  0
  2  3  1  0
  3  4  2  0
  4  5  1  0
  5  6  2  0
  6  7  1  0
  7  8  1  0
  8  9  2  0
  8 10  1  0
 10 11  1  0
 11 12  1  0
 11 13  1  0
 13 14  1  0
 14 15  1  0
 15 16  2  0
 15 17  1  0
 17 18  2  0
 18 19  1  0
 19 20  1  0
 20 21  2  0
  6 22  1  0
 22  3  1  0
 21 17  1  0
  1 23  1  0
  1 24  1  0
  1 25  1  0
  2 26  1  0
  2 27  1  0
  4 28  1  0
  7 29  1  0
  7 30  1  0
 10 31  1  0
 11 32  1  0
 12 33  1  0
 12 34  1  0
 12 35  1  0
 13 36  1  0
 13 37  1  0
 14 38  1  0
 18 39  1  0
 20 40  1  0
 22 41  1  0
M  END
>  <Energy>  (797) 
52.86267352094103

>  <compound_id>  (797) 
8990

>  <target_id>  (797) 
1

>  <reference_id>  (797) 
7

>  <inspiration_ids>  (797) 
[80, 7]

>  <energy_score>  (797) 
-54.52576840696008

>  <distance_score>  (797) 
11.939953053042988

>  <path>  (797) 
/opt/xchem-fragalysis-2/maxwin/BulkDock/SCRATCH/511020/C8990-P7/C8990-P7.minimised.mol

>  <scratch_subdir>  (797) 
/opt/xchem-fragalysis-2/maxwin/BulkDock/SCRATCH/511020/C8990-P7

>  <fragmenstein_runtime>  (797) 
20.309919118881226

>  <fragmenstein_outcome>  (797) 
too moved

>  <fragmenstein_mode>  (797) 
expansion

>  <fragmenstein_error>  (797) 


$$$$
C7727-P80
     RDKit          3D

 41 42  0  0  0  0  0  0  0  0999 V2000
   -7.7185    1.4123   35.6040 C   0  0  0  0  0  0  0  0  0  0  0  0
   -7.2050    0.0128   35.8877 C   0  0  0  0  0  0  0  0  0  0  0  0
   -6.3251   -0.5049   34.7967 C   0  0  0  0  0  0  0  0  0  0  0  0
   -6.5866   -1.3040   33.7098 C   0  0  0  0  0  0  0  0  0  0  0  0
   -5.4449   -1.5510   32.9848 N   0  0  0  0  0  0  0  0  0  0  0  0
   -4.4860   -0.8331   33.5348 C   0  0  0  0  0  0  0  0  0  0  0  0
   -3.0984   -0.5068   32.9967 C   0  0  0  0  0  0  0  0  0  0  0  0
   -2.4343   -1.5126   31.9915 C   0  0  0  0  0  0  0  0  0  0  0  0
   -2.7074   -2.6825   32.0231 O   0  0  0  0  0  0  0  0  0  0  0  0
   -1.4413   -0.7788   31.1791 N   0  0  0  0  0  0  0  0  0  0  0  0
   -0.5424   -1.2424   30.0808 C   0  0  0  0  0  0  0  0  0  0  0  0
   -1.3543   -1.3974   28.8019 C   0  0  0  0  0  0  0  0  0  0  0  0
    0.6745   -0.2820   29.8584 C   0  0  0  0  0  0  0  0  0  0  0  0
    1.5795   -0.4746   28.7124 N   0  0  0  0  0  0  0  0  0  0  0  0
    2.2749    0.4863   27.8811 C   0  0  0  0  0  0  0  0  0  0  0  0
    2.2263    1.6817   27.8666 O   0  0  0  0  0  0  0  0  0  0  0  0
    3.2439   -0.1052   26.9097 C   0  0  0  0  0  0  0  0  0  0  0  0
    3.9503    0.5851   25.9186 C   0  0  0  0  0  0  0  0  0  0  0  0
    4.8020   -0.1466   25.1041 N   0  0  0  0  0  0  0  0  0  0  0  0
    4.7454   -1.4009   25.4844 C   0  0  0  0  0  0  0  0  0  0  0  0
    3.7240   -1.7462   26.8274 S   0  0  0  0  0  0  0  0  0  0  0  0
   -4.9822   -0.2220   34.6798 N   0  0  0  0  0  0  0  0  0  0  0  0
   -8.3159    1.7746   36.4467 H   0  0  0  0  0  0  0  0  0  0  0  0
   -8.3552    1.4231   34.7147 H   0  0  0  0  0  0  0  0  0  0  0  0
   -6.8956    2.1166   35.4426 H   0  0  0  0  0  0  0  0  0  0  0  0
   -6.6479    0.0137   36.8322 H   0  0  0  0  0  0  0  0  0  0  0  0
   -8.0552   -0.6661   36.0238 H   0  0  0  0  0  0  0  0  0  0  0  0
   -7.5403   -1.7103   33.4039 H   0  0  0  0  0  0  0  0  0  0  0  0
   -3.1796    0.4728   32.5094 H   0  0  0  0  0  0  0  0  0  0  0  0
   -2.4040   -0.4068   33.8400 H   0  0  0  0  0  0  0  0  0  0  0  0
   -1.4238    0.1914   31.4720 H   0  0  0  0  0  0  0  0  0  0  0  0
   -0.1738   -2.2321   30.3744 H   0  0  0  0  0  0  0  0  0  0  0  0
   -0.7400   -1.8104   27.9978 H   0  0  0  0  0  0  0  0  0  0  0  0
   -1.7627   -0.4370   28.4697 H   0  0  0  0  0  0  0  0  0  0  0  0
   -2.1946   -2.0783   28.9626 H   0  0  0  0  0  0  0  0  0  0  0  0
    1.3097   -0.3120   30.7516 H   0  0  0  0  0  0  0  0  0  0  0  0
    0.3068    0.7493   29.7862 H   0  0  0  0  0  0  0  0  0  0  0  0
    1.9277   -1.4056   28.5039 H   0  0  0  0  0  0  0  0  0  0  0  0
    3.8596    1.6529   25.7506 H   0  0  0  0  0  0  0  0  0  0  0  0
    5.3182   -2.1800   25.0037 H   0  0  0  0  0  0  0  0  0  0  0  0
   -4.4618    0.4023   35.2793 H   0  0  0  0  0  0  0  0  0  0  0  0
  1  2  1  0
  2  3  1  0
  3  4  2  0
  4  5  1  0
  5  6  2  0
  6  7  1  0
  7  8  1  0
  8  9  2  0
  8 10  1  0
 10 11  1  0
 11 12  1  0
 11 13  1  0
 13 14  1  0
 14 15  1  0
 15 16  2  0
 15 17  1  0
 17 18  2  0
 18 19  1  0
 19 20  2  0
 20 21  1  0
  6 22  1  0
 22  3  1  0
 21 17  1  0
  1 23  1  0
  1 24  1  0
  1 25  1  0
  2 26  1  0
  2 27  1  0
  4 28  1  0
  7 29  1  0
  7 30  1  0
 10 31  1  0
 11 32  1  0
 12 33  1  0
 12 34  1  0
 12 35  1  0
 13 36  1  0
 13 37  1  0
 14 38  1  0
 18 39  1  0
 20 40  1  0
 22 41  1  0
M  END
>  <Energy>  (798) 
28.178151716858359

>  <compound_id>  (798) 
7727

>  <target_id>  (798) 
1

>  <reference_id>  (798) 
80

>  <inspiration_ids>  (798) 
[80, 7]

>  <energy_score>  (798) 
-20.313327937668987

>  <distance_score>  (798) 
11.79683180824735

>  <path>  (798) 
/opt/xchem-fragalysis-2/maxwin/BulkDock/SCRATCH/511020/C7727-P80/C7727-P80.minimised.mol

>  <scratch_subdir>  (798) 
/opt/xchem-fragalysis-2/maxwin/BulkDock/SCRATCH/511020/C7727-P80

>  <fragmenstein_runtime>  (798) 
28.79691505432129

>  <fragmenstein_outcome>  (798) 
too moved

>  <fragmenstein_mode>  (798) 
expansion

>  <fragmenstein_error>  (798) 


$$$$
C7727-P7
     RDKit          3D

 41 42  0  0  0  0  0  0  0  0999 V2000
   -6.9202    0.5496   34.1797 C   0  0  0  0  0  0  0  0  0  0  0  0
   -6.7541   -0.9477   34.2753 C   0  0  0  0  0  0  0  0  0  0  0  0
   -6.3645   -1.5878   32.9831 C   0  0  0  0  0  0  0  0  0  0  0  0
   -5.3418   -2.4318   32.6360 C   0  0  0  0  0  0  0  0  0  0  0  0
   -5.5209   -2.9148   31.3475 N   0  0  0  0  0  0  0  0  0  0  0  0
   -6.6921   -2.4469   30.8586 C   0  0  0  0  0  0  0  0  0  0  0  0
   -7.3081   -2.7467   29.1647 C   0  0  0  0  0  0  0  0  0  0  0  0
   -5.8953   -2.9344   28.2858 C   0  0  0  0  0  0  0  0  0  0  0  0
   -5.2713   -3.8320   28.7277 O   0  0  0  0  0  0  0  0  0  0  0  0
   -5.5418   -1.9399   27.1783 N   0  0  0  0  0  0  0  0  0  0  0  0
   -4.1051   -1.7206   26.3065 C   0  0  0  0  0  0  0  0  0  0  0  0
   -3.0000   -1.1883   27.2762 C   0  0  0  0  0  0  0  0  0  0  0  0
   -3.5638   -2.4944   24.5875 C   0  0  0  0  0  0  0  0  0  0  0  0
   -2.3442   -2.6904   23.7633 N   0  0  0  0  0  0  0  0  0  0  0  0
   -1.8287   -1.9718   22.6785 C   0  0  0  0  0  0  0  0  0  0  0  0
   -2.2995   -1.0426   22.0694 O   0  0  0  0  0  0  0  0  0  0  0  0
    0.0218   -2.4071   22.0987 C   0  0  0  0  0  0  0  0  0  0  0  0
    0.7268   -1.9046   20.6756 C   0  0  0  0  0  0  0  0  0  0  0  0
    1.7800   -2.5363   20.0161 N   0  0  0  0  0  0  0  0  0  0  0  0
    2.1135   -3.5614   20.7298 C   0  0  0  0  0  0  0  0  0  0  0  0
    1.3391   -3.8213   22.2115 S   0  0  0  0  0  0  0  0  0  0  0  0
   -7.0516   -1.4362   31.7979 N   0  0  0  0  0  0  0  0  0  0  0  0
   -7.7740    0.7920   33.5415 H   0  0  0  0  0  0  0  0  0  0  0  0
   -6.0246    1.0250   33.7668 H   0  0  0  0  0  0  0  0  0  0  0  0
   -7.1119    0.9776   35.1687 H   0  0  0  0  0  0  0  0  0  0  0  0
   -5.9891   -1.1727   35.0280 H   0  0  0  0  0  0  0  0  0  0  0  0
   -7.6886   -1.3964   34.6320 H   0  0  0  0  0  0  0  0  0  0  0  0
   -4.5135   -2.7648   33.2460 H   0  0  0  0  0  0  0  0  0  0  0  0
   -7.8469   -3.6882   29.1633 H   0  0  0  0  0  0  0  0  0  0  0  0
   -7.9299   -1.9229   28.8000 H   0  0  0  0  0  0  0  0  0  0  0  0
   -6.2741   -1.2434   27.1055 H   0  0  0  0  0  0  0  0  0  0  0  0
   -4.4156   -0.7281   25.9733 H   0  0  0  0  0  0  0  0  0  0  0  0
   -2.6234   -1.9357   27.9733 H   0  0  0  0  0  0  0  0  0  0  0  0
   -3.4061   -0.3595   27.8646 H   0  0  0  0  0  0  0  0  0  0  0  0
   -2.1555   -0.6951   26.7947 H   0  0  0  0  0  0  0  0  0  0  0  0
   -3.3649   -1.5181   24.4699 H   0  0  0  0  0  0  0  0  0  0  0  0
   -3.0886   -3.2497   25.2141 H   0  0  0  0  0  0  0  0  0  0  0  0
   -1.7353   -3.4412   23.9606 H   0  0  0  0  0  0  0  0  0  0  0  0
    0.3577   -1.0122   20.1630 H   0  0  0  0  0  0  0  0  0  0  0  0
    2.8929   -4.2282   20.3965 H   0  0  0  0  0  0  0  0  0  0  0  0
   -7.6048   -0.6138   31.6188 H   0  0  0  0  0  0  0  0  0  0  0  0
  1  2  1  0
  2  3  1  0
  3  4  2  0
  4  5  1  0
  5  6  2  0
  6  7  1  0
  7  8  1  0
  8  9  2  0
  8 10  1  0
 10 11  1  0
 11 12  1  0
 11 13  1  0
 13 14  1  0
 14 15  1  0
 15 16  2  0
 15 17  1  0
 17 18  2  0
 18 19  1  0
 19 20  2  0
 20 21  1  0
  6 22  1  0
 22  3  1  0
 21 17  1  0
  1 23  1  0
  1 24  1  0
  1 25  1  0
  2 26  1  0
  2 27  1  0
  4 28  1  0
  7 29  1  0
  7 30  1  0
 10 31  1  0
 11 32  1  0
 12 33  1  0
 12 34  1  0
 12 35  1  0
 13 36  1  0
 13 37  1  0
 14 38  1  0
 18 39  1  0
 20 40  1  0
 22 41  1  0
M  END
>  <Energy>  (799) 
354.77091261536202

>  <compound_id>  (799) 
7727

>  <target_id>  (799) 
1

>  <reference_id>  (799) 
7

>  <inspiration_ids>  (799) 
[80, 7]

>  <energy_score>  (799) 
306.27943296083356

>  <distance_score>  (799) 
11.461350257495768

>  <path>  (799) 
/opt/xchem-fragalysis-2/maxwin/BulkDock/SCRATCH/511020/C7727-P7/C7727-P7.minimised.mol

>  <scratch_subdir>  (799) 
/opt/xchem-fragalysis-2/maxwin/BulkDock/SCRATCH/511020/C7727-P7

>  <fragmenstein_runtime>  (799) 
15.603524684906006

>  <fragmenstein_outcome>  (799) 
too moved

>  <fragmenstein_mode>  (799) 
expansion

>  <fragmenstein_error>  (799) 


$$$$
C11944-P80
     RDKit          3D

 41 42  0  0  0  0  0  0  0  0999 V2000
   -7.4830   -2.1023   24.6345 C   0  0  0  0  0  0  0  0  0  0  0  0
   -5.9990   -1.8875   25.8057 C   0  0  0  0  0  0  0  0  0  0  0  0
   -7.7308   -1.1520   26.7035 C   0  0  0  0  0  0  0  0  0  0  0  0
   -7.6393   -1.0712   28.3713 N   0  0  0  0  0  0  0  0  0  0  0  0
   -7.7937    0.2615   29.4373 C   0  0  0  0  0  0  0  0  0  0  0  0
   -8.0940    1.4185   29.1975 O   0  0  0  0  0  0  0  0  0  0  0  0
   -7.2539   -0.2725   31.2123 C   0  0  0  0  0  0  0  0  0  0  0  0
   -6.7282   -1.5651   31.6412 C   0  0  0  0  0  0  0  0  0  0  0  0
   -6.2031   -1.8493   32.9116 C   0  0  0  0  0  0  0  0  0  0  0  0
   -6.2785   -1.0317   33.9515 N   0  0  0  0  0  0  0  0  0  0  0  0
   -6.9599    0.0705   33.6735 C   0  0  0  0  0  0  0  0  0  0  0  0
   -7.4441    0.4012   32.3840 C   0  0  0  0  0  0  0  0  0  0  0  0
   -4.0461   -1.7921   25.2761 N   0  0  0  0  0  0  0  0  0  0  0  0
   -3.1811   -2.3919   23.7777 C   0  0  0  0  0  0  0  0  0  0  0  0
   -3.7496   -3.0411   22.9470 O   0  0  0  0  0  0  0  0  0  0  0  0
   -1.3792   -1.9775   23.1517 C   0  0  0  0  0  0  0  0  0  0  0  0
    0.3784   -2.6069   22.5365 C   0  0  0  0  0  0  0  0  0  0  0  0
    0.5736   -3.2080   21.3551 N   0  0  0  0  0  0  0  0  0  0  0  0
    1.0764   -4.4287   21.4900 C   0  0  0  0  0  0  0  0  0  0  0  0
    2.0060   -4.0692   22.3346 C   0  0  0  0  0  0  0  0  0  0  0  0
    1.8609   -2.9171   22.9475 N   0  0  0  0  0  0  0  0  0  0  0  0
    3.0334   -2.4691   23.9141 C   0  0  0  0  0  0  0  0  0  0  0  0
   -7.9934   -1.1599   24.4163 H   0  0  0  0  0  0  0  0  0  0  0  0
   -8.3670   -2.6292   25.0642 H   0  0  0  0  0  0  0  0  0  0  0  0
   -7.3026   -2.8588   23.8647 H   0  0  0  0  0  0  0  0  0  0  0  0
   -5.6527   -2.5577   26.6307 H   0  0  0  0  0  0  0  0  0  0  0  0
   -8.1017   -0.2040   26.2887 H   0  0  0  0  0  0  0  0  0  0  0  0
   -8.4993   -1.9297   26.6825 H   0  0  0  0  0  0  0  0  0  0  0  0
   -7.4591   -1.9132   28.8976 H   0  0  0  0  0  0  0  0  0  0  0  0
   -6.6903   -2.4257   30.9779 H   0  0  0  0  0  0  0  0  0  0  0  0
   -5.7142   -2.7931   33.0875 H   0  0  0  0  0  0  0  0  0  0  0  0
   -7.2151    0.6838   34.5322 H   0  0  0  0  0  0  0  0  0  0  0  0
   -8.2768    1.0649   32.4005 H   0  0  0  0  0  0  0  0  0  0  0  0
   -3.4161   -1.1983   25.8026 H   0  0  0  0  0  0  0  0  0  0  0  0
   -1.2699   -2.9857   23.4204 H   0  0  0  0  0  0  0  0  0  0  0  0
   -1.7794   -1.7380   22.2203 H   0  0  0  0  0  0  0  0  0  0  0  0
    1.1965   -5.1150   20.6751 H   0  0  0  0  0  0  0  0  0  0  0  0
    2.9998   -4.0474   22.0497 H   0  0  0  0  0  0  0  0  0  0  0  0
    3.9497   -2.2808   23.3821 H   0  0  0  0  0  0  0  0  0  0  0  0
    2.8176   -1.5836   24.5203 H   0  0  0  0  0  0  0  0  0  0  0  0
    3.2250   -3.2605   24.6402 H   0  0  0  0  0  0  0  0  0  0  0  0
  1  2  1  0
  2  3  1  0
  3  4  1  0
  4  5  1  0
  5  6  2  0
  5  7  1  0
  7  8  2  0
  8  9  1  0
  9 10  2  0
 10 11  1  0
 11 12  2  0
  2 13  1  0
 13 14  1  0
 14 15  2  0
 14 16  1  0
 16 17  1  0
 17 18  2  0
 18 19  1  0
 19 20  2  0
 20 21  1  0
 21 22  1  0
 12  7  1  0
 21 17  1  0
  1 23  1  0
  1 24  1  0
  1 25  1  0
  2 26  1  0
  3 27  1  0
  3 28  1  0
  4 29  1  0
  8 30  1  0
  9 31  1  0
 11 32  1  0
 12 33  1  0
 13 34  1  0
 16 35  1  0
 16 36  1  0
 19 37  1  0
 20 38  1  0
 22 39  1  0
 22 40  1  0
 22 41  1  0
M  END
>  <Energy>  (800) 
787.43292862087708

>  <compound_id>  (800) 
11944

>  <target_id>  (800) 
1

>  <reference_id>  (800) 
80

>  <inspiration_ids>  (800) 
[80, 7]

>  <energy_score>  (800) 
745.1565476382561

>  <distance_score>  (800) 
11.547481158494719

>  <path>  (800) 
/opt/xchem-fragalysis-2/maxwin/BulkDock/SCRATCH/511020/C11944-P80/C11944-P80.minimised.mol

>  <scratch_subdir>  (800) 
/opt/xchem-fragalysis-2/maxwin/BulkDock/SCRATCH/511020/C11944-P80

>  <fragmenstein_runtime>  (800) 
14.770198106765747

>  <fragmenstein_outcome>  (800) 
too moved

>  <fragmenstein_mode>  (800) 
expansion

>  <fragmenstein_error>  (800) 


$$$$
C11944-P7
     RDKit          3D

 41 42  0  0  0  0  0  0  0  0999 V2000
    0.8809   -3.9096   28.5866 C   0  0  0  0  0  0  0  0  0  0  0  0
    0.1217   -5.1644   29.0396 C   0  0  0  0  0  0  0  0  0  0  0  0
   -0.5920   -4.5998   30.3007 C   0  0  0  0  0  0  0  0  0  0  0  0
   -0.7459   -5.4465   31.4695 N   0  0  0  0  0  0  0  0  0  0  0  0
   -1.2134   -6.7903   31.6005 C   0  0  0  0  0  0  0  0  0  0  0  0
   -1.5255   -7.5942   30.7709 O   0  0  0  0  0  0  0  0  0  0  0  0
   -1.4168   -7.1941   33.0321 C   0  0  0  0  0  0  0  0  0  0  0  0
   -1.8921   -6.3003   34.0009 C   0  0  0  0  0  0  0  0  0  0  0  0
   -2.0096   -6.7614   35.2981 C   0  0  0  0  0  0  0  0  0  0  0  0
   -1.7646   -8.0337   35.6662 N   0  0  0  0  0  0  0  0  0  0  0  0
   -1.3534   -8.8867   34.7035 C   0  0  0  0  0  0  0  0  0  0  0  0
   -1.1585   -8.5186   33.3854 C   0  0  0  0  0  0  0  0  0  0  0  0
   -0.4999   -5.6743   27.7615 N   0  0  0  0  0  0  0  0  0  0  0  0
   -0.3576   -6.9919   27.0584 C   0  0  0  0  0  0  0  0  0  0  0  0
    0.2225   -7.9907   27.3876 O   0  0  0  0  0  0  0  0  0  0  0  0
   -1.0279   -6.9641   25.5733 C   0  0  0  0  0  0  0  0  0  0  0  0
   -0.5744   -7.5618   24.1312 C   0  0  0  0  0  0  0  0  0  0  0  0
   -1.4097   -8.1970   23.2492 N   0  0  0  0  0  0  0  0  0  0  0  0
   -0.7157   -8.7097   22.1784 C   0  0  0  0  0  0  0  0  0  0  0  0
    0.4853   -8.0894   22.1484 C   0  0  0  0  0  0  0  0  0  0  0  0
    0.4503   -7.2288   23.2617 N   0  0  0  0  0  0  0  0  0  0  0  0
    0.7565   -5.8340   23.1128 C   0  0  0  0  0  0  0  0  0  0  0  0
    0.1969   -3.0755   28.3852 H   0  0  0  0  0  0  0  0  0  0  0  0
    1.4384   -4.0757   27.6626 H   0  0  0  0  0  0  0  0  0  0  0  0
    1.6163   -3.5838   29.3317 H   0  0  0  0  0  0  0  0  0  0  0  0
    0.7939   -5.9444   29.4021 H   0  0  0  0  0  0  0  0  0  0  0  0
   -1.4952   -4.0280   30.0835 H   0  0  0  0  0  0  0  0  0  0  0  0
    0.0536   -3.8231   30.7376 H   0  0  0  0  0  0  0  0  0  0  0  0
   -0.6579   -5.0368   32.3904 H   0  0  0  0  0  0  0  0  0  0  0  0
   -2.1754   -5.2793   33.7794 H   0  0  0  0  0  0  0  0  0  0  0  0
   -2.3052   -6.1049   36.1077 H   0  0  0  0  0  0  0  0  0  0  0  0
   -1.1722   -9.9056   35.0350 H   0  0  0  0  0  0  0  0  0  0  0  0
   -0.8136   -9.2438   32.6560 H   0  0  0  0  0  0  0  0  0  0  0  0
   -1.1226   -5.0874   27.2398 H   0  0  0  0  0  0  0  0  0  0  0  0
   -1.9071   -7.5319   25.8207 H   0  0  0  0  0  0  0  0  0  0  0  0
   -1.3674   -5.9837   25.3294 H   0  0  0  0  0  0  0  0  0  0  0  0
   -1.1724   -9.3855   21.4702 H   0  0  0  0  0  0  0  0  0  0  0  0
    1.2480   -8.0699   21.3860 H   0  0  0  0  0  0  0  0  0  0  0  0
   -0.0595   -5.2643   23.5062 H   0  0  0  0  0  0  0  0  0  0  0  0
    1.5549   -5.7393   23.7765 H   0  0  0  0  0  0  0  0  0  0  0  0
    0.9820   -5.5262   22.0923 H   0  0  0  0  0  0  0  0  0  0  0  0
  1  2  1  0
  2  3  1  0
  3  4  1  0
  4  5  1  0
  5  6  2  0
  5  7  1  0
  7  8  2  0
  8  9  1  0
  9 10  2  0
 10 11  1  0
 11 12  2  0
  2 13  1  0
 13 14  1  0
 14 15  2  0
 14 16  1  0
 16 17  1  0
 17 18  2  0
 18 19  1  0
 19 20  2  0
 20 21  1  0
 21 22  1  0
 12  7  1  0
 21 17  1  0
  1 23  1  0
  1 24  1  0
  1 25  1  0
  2 26  1  0
  3 27  1  0
  3 28  1  0
  4 29  1  0
  8 30  1  0
  9 31  1  0
 11 32  1  0
 12 33  1  0
 13 34  1  0
 16 35  1  0
 16 36  1  0
 19 37  1  0
 20 38  1  0
 22 39  1  0
 22 40  1  0
 22 41  1  0
M  END
>  <Energy>  (801) 
109.0220295809419

>  <compound_id>  (801) 
11944

>  <target_id>  (801) 
1

>  <reference_id>  (801) 
7

>  <inspiration_ids>  (801) 
[80, 7]

>  <energy_score>  (801) 
66.74564859831503

>  <distance_score>  (801) 
14.789797389366475

>  <path>  (801) 
/opt/xchem-fragalysis-2/maxwin/BulkDock/SCRATCH/511020/C11944-P7/C11944-P7.minimised.mol

>  <scratch_subdir>  (801) 
/opt/xchem-fragalysis-2/maxwin/BulkDock/SCRATCH/511020/C11944-P7

>  <fragmenstein_runtime>  (801) 
20.17349910736084

>  <fragmenstein_outcome>  (801) 
too moved

>  <fragmenstein_mode>  (801) 
expansion

>  <fragmenstein_error>  (801) 


$$$$
C7728-P80
     RDKit          3D

 38 39  0  0  0  0  0  0  0  0999 V2000
   -4.7050    4.8744   23.7181 C   0  0  0  0  0  0  0  0  0  0  0  0
   -4.1412    4.6921   25.1236 C   0  0  0  0  0  0  0  0  0  0  0  0
   -2.8560    3.8111   25.1573 C   0  0  0  0  0  0  0  0  0  0  0  0
   -1.7335    4.0918   24.2492 N   0  0  0  0  0  0  0  0  0  0  0  0
   -0.3474    3.6743   24.2975 C   0  0  0  0  0  0  0  0  0  0  0  0
    0.2503    3.0611   25.1310 O   0  0  0  0  0  0  0  0  0  0  0  0
    0.4363    4.0204   23.0694 C   0  0  0  0  0  0  0  0  0  0  0  0
    0.0937    4.4338   21.7913 C   0  0  0  0  0  0  0  0  0  0  0  0
    1.1154    4.5542   20.8583 N   0  0  0  0  0  0  0  0  0  0  0  0
    2.2578    4.2450   21.4245 C   0  0  0  0  0  0  0  0  0  0  0  0
    2.1816    3.8443   23.0861 S   0  0  0  0  0  0  0  0  0  0  0  0
   -5.1528    4.2123   26.1037 N   0  0  0  0  0  0  0  0  0  0  0  0
   -6.5640    3.8432   25.9280 C   0  0  0  0  0  0  0  0  0  0  0  0
   -7.2324    3.7610   24.9350 O   0  0  0  0  0  0  0  0  0  0  0  0
   -7.1670    3.4999   27.3128 C   0  0  0  0  0  0  0  0  0  0  0  0
   -8.6699    3.4541   27.3937 C   0  0  0  0  0  0  0  0  0  0  0  0
   -9.4276    4.4957   27.7024 N   0  0  0  0  0  0  0  0  0  0  0  0
  -10.7224    4.0903   27.5327 C   0  0  0  0  0  0  0  0  0  0  0  0
  -10.7739    2.7459   27.2636 C   0  0  0  0  0  0  0  0  0  0  0  0
   -9.4682    2.3306   27.2865 N   0  0  0  0  0  0  0  0  0  0  0  0
   -9.0650    0.9461   27.2576 C   0  0  0  0  0  0  0  0  0  0  0  0
   -5.5640    5.5544   23.7325 H   0  0  0  0  0  0  0  0  0  0  0  0
   -5.0394    3.9296   23.2848 H   0  0  0  0  0  0  0  0  0  0  0  0
   -3.9613    5.3112   23.0448 H   0  0  0  0  0  0  0  0  0  0  0  0
   -3.8559    5.6874   25.4870 H   0  0  0  0  0  0  0  0  0  0  0  0
   -3.1136    2.7628   25.0038 H   0  0  0  0  0  0  0  0  0  0  0  0
   -2.4364    3.8447   26.1712 H   0  0  0  0  0  0  0  0  0  0  0  0
   -1.9169    4.5225   23.3540 H   0  0  0  0  0  0  0  0  0  0  0  0
   -0.9087    4.6586   21.4542 H   0  0  0  0  0  0  0  0  0  0  0  0
    3.1917    4.2723   20.8814 H   0  0  0  0  0  0  0  0  0  0  0  0
   -4.9397    4.2573   27.1048 H   0  0  0  0  0  0  0  0  0  0  0  0
   -6.7464    2.5471   27.6230 H   0  0  0  0  0  0  0  0  0  0  0  0
   -6.8595    4.2812   28.0157 H   0  0  0  0  0  0  0  0  0  0  0  0
  -11.5480    4.7830   27.6321 H   0  0  0  0  0  0  0  0  0  0  0  0
  -11.6031    2.0721   27.1002 H   0  0  0  0  0  0  0  0  0  0  0  0
   -9.9485    0.3046   27.2191 H   0  0  0  0  0  0  0  0  0  0  0  0
   -8.4794    0.7910   26.3504 H   0  0  0  0  0  0  0  0  0  0  0  0
   -8.4881    0.7318   28.1575 H   0  0  0  0  0  0  0  0  0  0  0  0
  1  2  1  0
  2  3  1  0
  3  4  1  0
  4  5  1  0
  5  6  2  0
  5  7  1  0
  7  8  2  0
  8  9  1  0
  9 10  2  0
 10 11  1  0
  2 12  1  0
 12 13  1  0
 13 14  2  0
 13 15  1  0
 15 16  1  0
 16 17  2  0
 17 18  1  0
 18 19  2  0
 19 20  1  0
 20 21  1  0
 11  7  1  0
 20 16  1  0
  1 22  1  0
  1 23  1  0
  1 24  1  0
  2 25  1  0
  3 26  1  0
  3 27  1  0
  4 28  1  0
  8 29  1  0
 10 30  1  0
 12 31  1  0
 15 32  1  0
 15 33  1  0
 18 34  1  0
 19 35  1  0
 21 36  1  0
 21 37  1  0
 21 38  1  0
M  END
>  <Energy>  (802) 
33.101479419588415

>  <compound_id>  (802) 
7728

>  <target_id>  (802) 
1

>  <reference_id>  (802) 
80

>  <inspiration_ids>  (802) 
[80, 7]

>  <energy_score>  (802) 
-53.049990608041725

>  <distance_score>  (802) 
12.643694595337664

>  <path>  (802) 
/opt/xchem-fragalysis-2/maxwin/BulkDock/SCRATCH/511020/C7728-P80/C7728-P80.minimised.mol

>  <scratch_subdir>  (802) 
/opt/xchem-fragalysis-2/maxwin/BulkDock/SCRATCH/511020/C7728-P80

>  <fragmenstein_runtime>  (802) 
20.64753532409668

>  <fragmenstein_outcome>  (802) 
too moved

>  <fragmenstein_mode>  (802) 
expansion

>  <fragmenstein_error>  (802) 


$$$$
C7728-P7
     RDKit          3D

 38 39  0  0  0  0  0  0  0  0999 V2000
    4.2295   -2.0485   24.8949 C   0  0  0  0  0  0  0  0  0  0  0  0
    3.9443   -0.6519   25.3688 C   0  0  0  0  0  0  0  0  0  0  0  0
    4.3472    0.4613   24.0605 C   0  0  0  0  0  0  0  0  0  0  0  0
    4.7913    0.0167   22.2185 N   0  0  0  0  0  0  0  0  0  0  0  0
    6.1450    0.5344   21.1578 C   0  0  0  0  0  0  0  0  0  0  0  0
    6.8947    1.3766   21.5507 O   0  0  0  0  0  0  0  0  0  0  0  0
    6.7272   -0.0141   19.3493 C   0  0  0  0  0  0  0  0  0  0  0  0
    6.1361   -0.4252   17.9955 C   0  0  0  0  0  0  0  0  0  0  0  0
    6.8112   -0.2869   16.7490 N   0  0  0  0  0  0  0  0  0  0  0  0
    7.7675    0.5731   16.8698 C   0  0  0  0  0  0  0  0  0  0  0  0
    7.2781    1.6602   18.0581 S   0  0  0  0  0  0  0  0  0  0  0  0
    2.6984   -0.7631   26.1989 N   0  0  0  0  0  0  0  0  0  0  0  0
    2.2814   -0.0446   27.4390 C   0  0  0  0  0  0  0  0  0  0  0  0
    2.8070    0.8563   28.0310 O   0  0  0  0  0  0  0  0  0  0  0  0
    0.9225   -0.7247   27.9666 C   0  0  0  0  0  0  0  0  0  0  0  0
    0.1535   -0.2192   29.2158 C   0  0  0  0  0  0  0  0  0  0  0  0
    0.3783    0.8609   29.9467 N   0  0  0  0  0  0  0  0  0  0  0  0
   -0.5771    0.9022   30.9365 C   0  0  0  0  0  0  0  0  0  0  0  0
   -1.4550   -0.1379   30.8056 C   0  0  0  0  0  0  0  0  0  0  0  0
   -0.9909   -0.8490   29.7284 N   0  0  0  0  0  0  0  0  0  0  0  0
   -1.6434   -2.0447   29.2487 C   0  0  0  0  0  0  0  0  0  0  0  0
    5.2682   -2.1107   24.5811 H   0  0  0  0  0  0  0  0  0  0  0  0
    3.5827   -2.3398   24.0686 H   0  0  0  0  0  0  0  0  0  0  0  0
    4.0269   -2.7629   25.6934 H   0  0  0  0  0  0  0  0  0  0  0  0
    4.6745   -0.3894   26.1510 H   0  0  0  0  0  0  0  0  0  0  0  0
    5.3113    0.2799   24.4714 H   0  0  0  0  0  0  0  0  0  0  0  0
    3.6669    1.3392   24.1396 H   0  0  0  0  0  0  0  0  0  0  0  0
    4.3451   -0.7046   21.8025 H   0  0  0  0  0  0  0  0  0  0  0  0
    5.2095   -0.9833   17.8650 H   0  0  0  0  0  0  0  0  0  0  0  0
    8.5180    0.7523   16.1086 H   0  0  0  0  0  0  0  0  0  0  0  0
    2.0552   -1.5329   26.0252 H   0  0  0  0  0  0  0  0  0  0  0  0
    0.2001   -0.6380   27.1537 H   0  0  0  0  0  0  0  0  0  0  0  0
    1.1519   -1.7853   28.1270 H   0  0  0  0  0  0  0  0  0  0  0  0
   -0.5794    1.6906   31.6769 H   0  0  0  0  0  0  0  0  0  0  0  0
   -2.3344   -0.4179   31.3678 H   0  0  0  0  0  0  0  0  0  0  0  0
   -2.2373   -1.7694   28.3750 H   0  0  0  0  0  0  0  0  0  0  0  0
   -2.2744   -2.4516   30.0407 H   0  0  0  0  0  0  0  0  0  0  0  0
   -0.8815   -2.7799   28.9803 H   0  0  0  0  0  0  0  0  0  0  0  0
  1  2  1  0
  2  3  1  0
  3  4  1  0
  4  5  1  0
  5  6  2  0
  5  7  1  0
  7  8  2  0
  8  9  1  0
  9 10  2  0
 10 11  1  0
  2 12  1  0
 12 13  1  0
 13 14  2  0
 13 15  1  0
 15 16  1  0
 16 17  2  0
 17 18  1  0
 18 19  2  0
 19 20  1  0
 20 21  1  0
 11  7  1  0
 20 16  1  0
  1 22  1  0
  1 23  1  0
  1 24  1  0
  2 25  1  0
  3 26  1  0
  3 27  1  0
  4 28  1  0
  8 29  1  0
 10 30  1  0
 12 31  1  0
 15 32  1  0
 15 33  1  0
 18 34  1  0
 19 35  1  0
 21 36  1  0
 21 37  1  0
 21 38  1  0
M  END
>  <Energy>  (803) 
363.57476293535967

>  <compound_id>  (803) 
7728

>  <target_id>  (803) 
1

>  <reference_id>  (803) 
7

>  <inspiration_ids>  (803) 
[80, 7]

>  <energy_score>  (803) 
277.42329290772716

>  <distance_score>  (803) 
11.357267590628027

>  <path>  (803) 
/opt/xchem-fragalysis-2/maxwin/BulkDock/SCRATCH/511020/C7728-P7/C7728-P7.minimised.mol

>  <scratch_subdir>  (803) 
/opt/xchem-fragalysis-2/maxwin/BulkDock/SCRATCH/511020/C7728-P7

>  <fragmenstein_runtime>  (803) 
16.82292652130127

>  <fragmenstein_outcome>  (803) 
too moved

>  <fragmenstein_mode>  (803) 
expansion

>  <fragmenstein_error>  (803) 


$$$$
C11896-P80
     RDKit          3D

 41 42  0  0  0  0  0  0  0  0999 V2000
    1.5335    3.2398   22.9163 C   0  0  0  0  0  0  0  0  0  0  0  0
    2.6076    2.2242   23.4545 C   0  0  0  0  0  0  0  0  0  0  0  0
    2.6685    2.0139   25.0575 C   0  0  0  0  0  0  0  0  0  0  0  0
    1.4695    2.1557   25.9453 N   0  0  0  0  0  0  0  0  0  0  0  0
    1.3674    2.4179   27.3659 C   0  0  0  0  0  0  0  0  0  0  0  0
    2.2130    2.6679   28.1770 O   0  0  0  0  0  0  0  0  0  0  0  0
   -0.0055    2.2600   27.9939 C   0  0  0  0  0  0  0  0  0  0  0  0
   -0.5039    3.2236   28.8860 C   0  0  0  0  0  0  0  0  0  0  0  0
   -1.6280    2.9581   29.6850 C   0  0  0  0  0  0  0  0  0  0  0  0
   -2.2259    1.7162   29.5877 C   0  0  0  0  0  0  0  0  0  0  0  0
   -1.7934    0.7575   28.7395 N   0  0  0  0  0  0  0  0  0  0  0  0
   -0.6816    1.0406   27.9920 C   0  0  0  0  0  0  0  0  0  0  0  0
    3.5901    1.6521   22.3204 N   0  0  0  0  0  0  0  0  0  0  0  0
    4.8010    0.3049   22.3361 C   0  0  0  0  0  0  0  0  0  0  0  0
    4.9395   -0.4823   23.3421 O   0  0  0  0  0  0  0  0  0  0  0  0
    6.2861   -0.1023   20.9208 C   0  0  0  0  0  0  0  0  0  0  0  0
    7.0887    0.5404   19.1993 C   0  0  0  0  0  0  0  0  0  0  0  0
    7.7073   -0.3009   18.3932 N   0  0  0  0  0  0  0  0  0  0  0  0
    8.0448    0.1798   17.1229 C   0  0  0  0  0  0  0  0  0  0  0  0
    8.0054    1.5145   17.1275 C   0  0  0  0  0  0  0  0  0  0  0  0
    7.4195    1.8947   18.3443 N   0  0  0  0  0  0  0  0  0  0  0  0
    7.2398    3.3749   18.3318 C   0  0  0  0  0  0  0  0  0  0  0  0
    1.3427    3.0815   21.8493 H   0  0  0  0  0  0  0  0  0  0  0  0
    0.5884    3.1597   23.4639 H   0  0  0  0  0  0  0  0  0  0  0  0
    1.8674    4.2801   23.0261 H   0  0  0  0  0  0  0  0  0  0  0  0
    3.3126    3.0668   23.5569 H   0  0  0  0  0  0  0  0  0  0  0  0
    3.3664    2.7438   25.4913 H   0  0  0  0  0  0  0  0  0  0  0  0
    3.1003    1.0343   25.2874 H   0  0  0  0  0  0  0  0  0  0  0  0
    0.5421    2.0647   25.5602 H   0  0  0  0  0  0  0  0  0  0  0  0
    0.0280    4.1657   29.0052 H   0  0  0  0  0  0  0  0  0  0  0  0
   -1.9925    3.6959   30.3912 H   0  0  0  0  0  0  0  0  0  0  0  0
   -3.0740    1.4521   30.2116 H   0  0  0  0  0  0  0  0  0  0  0  0
   -0.3040    0.1955   27.4206 H   0  0  0  0  0  0  0  0  0  0  0  0
    3.5964    2.0748   21.4106 H   0  0  0  0  0  0  0  0  0  0  0  0
    6.9552    0.7698   21.3106 H   0  0  0  0  0  0  0  0  0  0  0  0
    6.8224   -1.0573   20.9388 H   0  0  0  0  0  0  0  0  0  0  0  0
    8.3697   -0.4683   16.3148 H   0  0  0  0  0  0  0  0  0  0  0  0
    8.2736    2.2348   16.3644 H   0  0  0  0  0  0  0  0  0  0  0  0
    7.1772    3.8569   19.3101 H   0  0  0  0  0  0  0  0  0  0  0  0
    8.1072    3.8246   17.8304 H   0  0  0  0  0  0  0  0  0  0  0  0
    6.3602    3.6133   17.7233 H   0  0  0  0  0  0  0  0  0  0  0  0
  1  2  1  0
  2  3  1  0
  3  4  1  0
  4  5  1  0
  5  6  2  0
  5  7  1  0
  7  8  2  0
  8  9  1  0
  9 10  2  0
 10 11  1  0
 11 12  2  0
  2 13  1  0
 13 14  1  0
 14 15  2  0
 14 16  1  0
 16 17  1  0
 17 18  2  0
 18 19  1  0
 19 20  2  0
 20 21  1  0
 21 22  1  0
 12  7  1  0
 21 17  1  0
  1 23  1  0
  1 24  1  0
  1 25  1  0
  2 26  1  0
  3 27  1  0
  3 28  1  0
  4 29  1  0
  8 30  1  0
  9 31  1  0
 10 32  1  0
 12 33  1  0
 13 34  1  0
 16 35  1  0
 16 36  1  0
 19 37  1  0
 20 38  1  0
 22 39  1  0
 22 40  1  0
 22 41  1  0
M  END
>  <Energy>  (804) 
418.56704658163903

>  <compound_id>  (804) 
11896

>  <target_id>  (804) 
1

>  <reference_id>  (804) 
80

>  <inspiration_ids>  (804) 
[80, 7]

>  <energy_score>  (804) 
361.3558977261192

>  <distance_score>  (804) 
11.502284037469616

>  <path>  (804) 
/opt/xchem-fragalysis-2/maxwin/BulkDock/SCRATCH/511020/C11896-P80/C11896-P80.minimised.mol

>  <scratch_subdir>  (804) 
/opt/xchem-fragalysis-2/maxwin/BulkDock/SCRATCH/511020/C11896-P80

>  <fragmenstein_runtime>  (804) 
12.232829570770264

>  <fragmenstein_outcome>  (804) 
too moved

>  <fragmenstein_mode>  (804) 
expansion

>  <fragmenstein_error>  (804) 


$$$$
C11896-P7
     RDKit          3D

 41 42  0  0  0  0  0  0  0  0999 V2000
    1.0862   -4.2856   21.7558 C   0  0  0  0  0  0  0  0  0  0  0  0
    2.4432   -4.4096   22.0045 C   0  0  0  0  0  0  0  0  0  0  0  0
    3.0402   -3.1043   23.3990 C   0  0  0  0  0  0  0  0  0  0  0  0
    3.0799   -3.0319   24.9481 N   0  0  0  0  0  0  0  0  0  0  0  0
    3.6074   -2.0091   25.8467 C   0  0  0  0  0  0  0  0  0  0  0  0
    4.2214   -1.0061   25.6155 O   0  0  0  0  0  0  0  0  0  0  0  0
    3.1957   -2.2324   27.3283 C   0  0  0  0  0  0  0  0  0  0  0  0
    4.0462   -2.1858   28.4217 C   0  0  0  0  0  0  0  0  0  0  0  0
    3.5312   -2.2784   29.7386 C   0  0  0  0  0  0  0  0  0  0  0  0
    2.1616   -2.3852   29.9495 C   0  0  0  0  0  0  0  0  0  0  0  0
    1.2822   -2.3707   28.9406 N   0  0  0  0  0  0  0  0  0  0  0  0
    1.8318   -2.2518   27.6871 C   0  0  0  0  0  0  0  0  0  0  0  0
    3.1224   -5.2917   20.3180 N   0  0  0  0  0  0  0  0  0  0  0  0
    4.5556   -4.9947   19.3892 C   0  0  0  0  0  0  0  0  0  0  0  0
    5.3693   -4.1407   19.6227 O   0  0  0  0  0  0  0  0  0  0  0  0
    5.0691   -6.0462   18.0463 C   0  0  0  0  0  0  0  0  0  0  0  0
    5.0150   -6.0247   16.5135 C   0  0  0  0  0  0  0  0  0  0  0  0
    5.4145   -7.1476   15.9171 N   0  0  0  0  0  0  0  0  0  0  0  0
    4.6889   -7.2754   14.7723 C   0  0  0  0  0  0  0  0  0  0  0  0
    3.9484   -6.1424   14.5681 C   0  0  0  0  0  0  0  0  0  0  0  0
    4.3655   -5.2550   15.5537 N   0  0  0  0  0  0  0  0  0  0  0  0
    4.0519   -3.8427   15.4475 C   0  0  0  0  0  0  0  0  0  0  0  0
    0.8038   -4.3616   20.7100 H   0  0  0  0  0  0  0  0  0  0  0  0
    0.7354   -5.1786   22.2971 H   0  0  0  0  0  0  0  0  0  0  0  0
    0.7887   -3.3232   22.1706 H   0  0  0  0  0  0  0  0  0  0  0  0
    3.2858   -3.7857   21.8153 H   0  0  0  0  0  0  0  0  0  0  0  0
    3.9182   -2.4837   23.2349 H   0  0  0  0  0  0  0  0  0  0  0  0
    2.2410   -2.4546   23.2203 H   0  0  0  0  0  0  0  0  0  0  0  0
    2.5541   -3.6787   25.4708 H   0  0  0  0  0  0  0  0  0  0  0  0
    5.1171   -2.0829   28.2550 H   0  0  0  0  0  0  0  0  0  0  0  0
    4.2138   -2.2597   30.5830 H   0  0  0  0  0  0  0  0  0  0  0  0
    1.7457   -2.4633   30.9484 H   0  0  0  0  0  0  0  0  0  0  0  0
    1.0757   -2.1036   26.9406 H   0  0  0  0  0  0  0  0  0  0  0  0
    2.5835   -5.9930   19.8705 H   0  0  0  0  0  0  0  0  0  0  0  0
    4.6984   -7.0457   18.3007 H   0  0  0  0  0  0  0  0  0  0  0  0
    6.1563   -6.1217   18.2161 H   0  0  0  0  0  0  0  0  0  0  0  0
    4.7512   -8.1593   14.1516 H   0  0  0  0  0  0  0  0  0  0  0  0
    3.2884   -5.8428   13.7658 H   0  0  0  0  0  0  0  0  0  0  0  0
    4.8515   -3.3528   14.8875 H   0  0  0  0  0  0  0  0  0  0  0  0
    3.1152   -3.7281   14.8922 H   0  0  0  0  0  0  0  0  0  0  0  0
    3.9270   -3.3880   16.4285 H   0  0  0  0  0  0  0  0  0  0  0  0
  1  2  1  0
  2  3  1  0
  3  4  1  0
  4  5  1  0
  5  6  2  0
  5  7  1  0
  7  8  2  0
  8  9  1  0
  9 10  2  0
 10 11  1  0
 11 12  2  0
  2 13  1  0
 13 14  1  0
 14 15  2  0
 14 16  1  0
 16 17  1  0
 17 18  2  0
 18 19  1  0
 19 20  2  0
 20 21  1  0
 21 22  1  0
 12  7  1  0
 21 17  1  0
  1 23  1  0
  1 24  1  0
  1 25  1  0
  2 26  1  0
  3 27  1  0
  3 28  1  0
  4 29  1  0
  8 30  1  0
  9 31  1  0
 10 32  1  0
 12 33  1  0
 13 34  1  0
 16 35  1  0
 16 36  1  0
 19 37  1  0
 20 38  1  0
 22 39  1  0
 22 40  1  0
 22 41  1  0
M  END
>  <Energy>  (805) 
389.5100674938717

>  <compound_id>  (805) 
11896

>  <target_id>  (805) 
1

>  <reference_id>  (805) 
7

>  <inspiration_ids>  (805) 
[80, 7]

>  <energy_score>  (805) 
332.2989186383551

>  <distance_score>  (805) 
14.251366157786995

>  <path>  (805) 
/opt/xchem-fragalysis-2/maxwin/BulkDock/SCRATCH/511020/C11896-P7/C11896-P7.minimised.mol

>  <scratch_subdir>  (805) 
/opt/xchem-fragalysis-2/maxwin/BulkDock/SCRATCH/511020/C11896-P7

>  <fragmenstein_runtime>  (805) 
8.310546875

>  <fragmenstein_outcome>  (805) 
too moved

>  <fragmenstein_mode>  (805) 
expansion

>  <fragmenstein_error>  (805) 


$$$$
C46406-P80
     RDKit          3D

 38 39  0  0  0  0  0  0  0  0999 V2000
    5.2673   -1.0671   26.1915 C   0  0  0  0  0  0  0  0  0  0  0  0
    4.2021   -1.2487   25.0735 C   0  0  0  0  0  0  0  0  0  0  0  0
    4.8136   -0.9537   23.3590 C   0  0  0  0  0  0  0  0  0  0  0  0
    4.8973    0.2998   21.8715 N   0  0  0  0  0  0  0  0  0  0  0  0
    6.1618    0.5587   20.6275 C   0  0  0  0  0  0  0  0  0  0  0  0
    7.1631   -0.1160   20.4957 O   0  0  0  0  0  0  0  0  0  0  0  0
    6.0803    1.6609   19.4030 C   0  0  0  0  0  0  0  0  0  0  0  0
    5.2191    2.5704   18.7823 C   0  0  0  0  0  0  0  0  0  0  0  0
    5.7647    3.0999   17.6514 O   0  0  0  0  0  0  0  0  0  0  0  0
    6.9559    2.4871   17.5491 C   0  0  0  0  0  0  0  0  0  0  0  0
    7.1847    1.6319   18.5037 N   0  0  0  0  0  0  0  0  0  0  0  0
    2.9402   -1.3608   25.8739 N   0  0  0  0  0  0  0  0  0  0  0  0
    2.4549   -0.5775   27.0553 C   0  0  0  0  0  0  0  0  0  0  0  0
    2.9240    0.3902   27.5990 O   0  0  0  0  0  0  0  0  0  0  0  0
    1.1613   -1.2465   27.7236 C   0  0  0  0  0  0  0  0  0  0  0  0
   -0.0222   -0.4140   28.2541 C   0  0  0  0  0  0  0  0  0  0  0  0
   -0.4518    0.7566   27.8062 N   0  0  0  0  0  0  0  0  0  0  0  0
   -1.5268    1.1233   28.5830 C   0  0  0  0  0  0  0  0  0  0  0  0
   -1.8015    0.1592   29.5149 C   0  0  0  0  0  0  0  0  0  0  0  0
   -0.9126   -0.8505   29.2484 N   0  0  0  0  0  0  0  0  0  0  0  0
   -0.9819   -2.1423   29.8981 C   0  0  0  0  0  0  0  0  0  0  0  0
    5.4057   -0.0081   26.4325 H   0  0  0  0  0  0  0  0  0  0  0  0
    6.2162   -1.5429   25.9417 H   0  0  0  0  0  0  0  0  0  0  0  0
    4.9675   -1.5589   27.1271 H   0  0  0  0  0  0  0  0  0  0  0  0
    4.2680   -2.3377   24.9177 H   0  0  0  0  0  0  0  0  0  0  0  0
    5.2246   -1.8784   23.0192 H   0  0  0  0  0  0  0  0  0  0  0  0
    5.3634   -0.2930   23.9552 H   0  0  0  0  0  0  0  0  0  0  0  0
    4.1376    0.9411   21.7119 H   0  0  0  0  0  0  0  0  0  0  0  0
    4.2087    2.9178   18.9554 H   0  0  0  0  0  0  0  0  0  0  0  0
    7.5852    2.7527   16.7115 H   0  0  0  0  0  0  0  0  0  0  0  0
    2.2513   -2.0673   25.6356 H   0  0  0  0  0  0  0  0  0  0  0  0
    0.7809   -2.0697   27.1334 H   0  0  0  0  0  0  0  0  0  0  0  0
    1.5902   -1.7428   28.6086 H   0  0  0  0  0  0  0  0  0  0  0  0
   -2.0373    2.0649   28.4222 H   0  0  0  0  0  0  0  0  0  0  0  0
   -2.5502    0.0956   30.2897 H   0  0  0  0  0  0  0  0  0  0  0  0
   -0.8750   -2.9183   29.1362 H   0  0  0  0  0  0  0  0  0  0  0  0
   -1.9448   -2.2518   30.4030 H   0  0  0  0  0  0  0  0  0  0  0  0
   -0.1654   -2.1991   30.6217 H   0  0  0  0  0  0  0  0  0  0  0  0
  1  2  1  0
  2  3  1  0
  3  4  1  0
  4  5  1  0
  5  6  2  0
  5  7  1  0
  7  8  2  0
  8  9  1  0
  9 10  1  0
 10 11  2  0
  2 12  1  0
 12 13  1  0
 13 14  2  0
 13 15  1  0
 15 16  1  0
 16 17  2  0
 17 18  1  0
 18 19  2  0
 19 20  1  0
 20 21  1  0
 11  7  1  0
 20 16  1  0
  1 22  1  0
  1 23  1  0
  1 24  1  0
  2 25  1  0
  3 26  1  0
  3 27  1  0
  4 28  1  0
  8 29  1  0
 10 30  1  0
 12 31  1  0
 15 32  1  0
 15 33  1  0
 18 34  1  0
 19 35  1  0
 21 36  1  0
 21 37  1  0
 21 38  1  0
M  END
>  <Energy>  (806) 
309.45384780077592

>  <compound_id>  (806) 
46406

>  <target_id>  (806) 
1

>  <reference_id>  (806) 
80

>  <inspiration_ids>  (806) 
[80, 7]

>  <energy_score>  (806) 
245.7838923700048

>  <distance_score>  (806) 
12.176087014500272

>  <path>  (806) 
/opt/xchem-fragalysis-2/maxwin/BulkDock/SCRATCH/511020/C46406-P80/C46406-P80.minimised.mol

>  <scratch_subdir>  (806) 
/opt/xchem-fragalysis-2/maxwin/BulkDock/SCRATCH/511020/C46406-P80

>  <fragmenstein_runtime>  (806) 
18.386505126953125

>  <fragmenstein_outcome>  (806) 
too moved

>  <fragmenstein_mode>  (806) 
expansion

>  <fragmenstein_error>  (806) 


$$$$
C46406-P7
     RDKit          3D

 38 39  0  0  0  0  0  0  0  0999 V2000
    4.1276   -0.0414   26.1018 C   0  0  0  0  0  0  0  0  0  0  0  0
    3.9243   -1.5435   25.9835 C   0  0  0  0  0  0  0  0  0  0  0  0
    4.3192   -2.1893   24.4326 C   0  0  0  0  0  0  0  0  0  0  0  0
    4.7514   -1.2170   23.3999 N   0  0  0  0  0  0  0  0  0  0  0  0
    5.4983   -1.4625   21.8072 C   0  0  0  0  0  0  0  0  0  0  0  0
    5.7214   -2.5388   21.2237 O   0  0  0  0  0  0  0  0  0  0  0  0
    6.2086    0.0452   20.8596 C   0  0  0  0  0  0  0  0  0  0  0  0
    7.0781   -0.1607   19.7559 C   0  0  0  0  0  0  0  0  0  0  0  0
    7.0022    0.8841   18.9028 O   0  0  0  0  0  0  0  0  0  0  0  0
    6.6848    1.8288   19.7934 C   0  0  0  0  0  0  0  0  0  0  0  0
    6.4820    1.3784   21.0261 N   0  0  0  0  0  0  0  0  0  0  0  0
    2.6239   -1.8858   26.6601 N   0  0  0  0  0  0  0  0  0  0  0  0
    2.1640   -1.6640   28.0659 C   0  0  0  0  0  0  0  0  0  0  0  0
    2.7523   -1.2282   29.0218 O   0  0  0  0  0  0  0  0  0  0  0  0
    0.6932   -2.2012   28.2988 C   0  0  0  0  0  0  0  0  0  0  0  0
   -0.2385   -1.4818   29.3152 C   0  0  0  0  0  0  0  0  0  0  0  0
   -0.6776   -0.2329   29.1981 N   0  0  0  0  0  0  0  0  0  0  0  0
   -1.6289   -0.0345   30.1692 C   0  0  0  0  0  0  0  0  0  0  0  0
   -1.8155   -1.1731   30.9028 C   0  0  0  0  0  0  0  0  0  0  0  0
   -0.9622   -2.0939   30.3440 N   0  0  0  0  0  0  0  0  0  0  0  0
   -0.9175   -3.4696   30.7755 C   0  0  0  0  0  0  0  0  0  0  0  0
    3.4657    0.5170   25.4375 H   0  0  0  0  0  0  0  0  0  0  0  0
    3.9271    0.3144   27.1182 H   0  0  0  0  0  0  0  0  0  0  0  0
    5.1636    0.2073   25.8954 H   0  0  0  0  0  0  0  0  0  0  0  0
    4.6531   -1.9876   26.6686 H   0  0  0  0  0  0  0  0  0  0  0  0
    3.4897   -2.7923   24.0858 H   0  0  0  0  0  0  0  0  0  0  0  0
    5.2611   -2.6460   24.6473 H   0  0  0  0  0  0  0  0  0  0  0  0
    4.6237   -0.2093   23.5703 H   0  0  0  0  0  0  0  0  0  0  0  0
    7.5389   -1.0222   19.3911 H   0  0  0  0  0  0  0  0  0  0  0  0
    6.6638    2.8480   19.4348 H   0  0  0  0  0  0  0  0  0  0  0  0
    1.8883   -2.3454   26.1372 H   0  0  0  0  0  0  0  0  0  0  0  0
    0.7865   -3.2602   28.5609 H   0  0  0  0  0  0  0  0  0  0  0  0
    0.1595   -2.1332   27.3613 H   0  0  0  0  0  0  0  0  0  0  0  0
   -2.1308    0.9153   30.2698 H   0  0  0  0  0  0  0  0  0  0  0  0
   -2.4717   -1.4064   31.7285 H   0  0  0  0  0  0  0  0  0  0  0  0
   -0.9907   -4.1126   29.8964 H   0  0  0  0  0  0  0  0  0  0  0  0
    0.0361   -3.6322   31.2840 H   0  0  0  0  0  0  0  0  0  0  0  0
   -1.7444   -3.6753   31.4592 H   0  0  0  0  0  0  0  0  0  0  0  0
  1  2  1  0
  2  3  1  0
  3  4  1  0
  4  5  1  0
  5  6  2  0
  5  7  1  0
  7  8  2  0
  8  9  1  0
  9 10  1  0
 10 11  2  0
  2 12  1  0
 12 13  1  0
 13 14  2  0
 13 15  1  0
 15 16  1  0
 16 17  2  0
 17 18  1  0
 18 19  2  0
 19 20  1  0
 20 21  1  0
 11  7  1  0
 20 16  1  0
  1 22  1  0
  1 23  1  0
  1 24  1  0
  2 25  1  0
  3 26  1  0
  3 27  1  0
  4 28  1  0
  8 29  1  0
 10 30  1  0
 12 31  1  0
 15 32  1  0
 15 33  1  0
 18 34  1  0
 19 35  1  0
 21 36  1  0
 21 37  1  0
 21 38  1  0
M  END
>  <Energy>  (807) 
197.66923420100355

>  <compound_id>  (807) 
46406

>  <target_id>  (807) 
1

>  <reference_id>  (807) 
7

>  <inspiration_ids>  (807) 
[80, 7]

>  <energy_score>  (807) 
133.99927877022765

>  <distance_score>  (807) 
11.794681296782896

>  <path>  (807) 
/opt/xchem-fragalysis-2/maxwin/BulkDock/SCRATCH/511020/C46406-P7/C46406-P7.minimised.mol

>  <scratch_subdir>  (807) 
/opt/xchem-fragalysis-2/maxwin/BulkDock/SCRATCH/511020/C46406-P7

>  <fragmenstein_runtime>  (807) 
9.595192432403564

>  <fragmenstein_outcome>  (807) 
too moved

>  <fragmenstein_mode>  (807) 
expansion

>  <fragmenstein_error>  (807) 


$$$$
C46407-P80
     RDKit          3D

 38 39  0  0  0  0  0  0  0  0999 V2000
    0.1851    1.2112   31.4252 C   0  0  0  0  0  0  0  0  0  0  0  0
   -0.5850    0.1597   30.6266 C   0  0  0  0  0  0  0  0  0  0  0  0
    0.2948   -1.0955   30.3560 C   0  0  0  0  0  0  0  0  0  0  0  0
    1.1110   -1.1448   29.1348 N   0  0  0  0  0  0  0  0  0  0  0  0
    2.1153   -0.2334   28.6251 C   0  0  0  0  0  0  0  0  0  0  0  0
    2.4774    0.8316   29.0307 O   0  0  0  0  0  0  0  0  0  0  0  0
    2.8442   -0.8091   27.4695 C   0  0  0  0  0  0  0  0  0  0  0  0
    3.0373   -2.0931   26.9945 C   0  0  0  0  0  0  0  0  0  0  0  0
    3.8369   -2.1117   25.8881 N   0  0  0  0  0  0  0  0  0  0  0  0
    4.1141   -0.8489   25.6996 C   0  0  0  0  0  0  0  0  0  0  0  0
    3.5863    0.0077   26.6224 O   0  0  0  0  0  0  0  0  0  0  0  0
   -1.8511   -0.1724   31.3280 N   0  0  0  0  0  0  0  0  0  0  0  0
   -2.1019   -0.5785   32.7014 C   0  0  0  0  0  0  0  0  0  0  0  0
   -1.3569   -0.6720   33.6378 O   0  0  0  0  0  0  0  0  0  0  0  0
   -3.5691   -1.0489   32.8963 C   0  0  0  0  0  0  0  0  0  0  0  0
   -4.4763   -0.0773   33.6131 C   0  0  0  0  0  0  0  0  0  0  0  0
   -4.2802    1.2148   33.8108 N   0  0  0  0  0  0  0  0  0  0  0  0
   -5.2948    1.6408   34.6327 C   0  0  0  0  0  0  0  0  0  0  0  0
   -6.1974    0.6331   34.8541 C   0  0  0  0  0  0  0  0  0  0  0  0
   -5.7018   -0.4339   34.1571 N   0  0  0  0  0  0  0  0  0  0  0  0
   -6.3846   -1.6942   34.0122 C   0  0  0  0  0  0  0  0  0  0  0  0
   -0.4608    2.0488   31.7025 H   0  0  0  0  0  0  0  0  0  0  0  0
    1.0224    1.6157   30.8538 H   0  0  0  0  0  0  0  0  0  0  0  0
    0.5848    0.7936   32.3556 H   0  0  0  0  0  0  0  0  0  0  0  0
   -0.8963    0.5940   29.6695 H   0  0  0  0  0  0  0  0  0  0  0  0
   -0.3563   -1.9753   30.2864 H   0  0  0  0  0  0  0  0  0  0  0  0
    0.9756   -1.2728   31.1963 H   0  0  0  0  0  0  0  0  0  0  0  0
    1.1264   -1.9936   28.5856 H   0  0  0  0  0  0  0  0  0  0  0  0
    2.6400   -3.0107   27.3961 H   0  0  0  0  0  0  0  0  0  0  0  0
    4.6857   -0.4224   24.8963 H   0  0  0  0  0  0  0  0  0  0  0  0
   -2.6989   -0.2904   30.7882 H   0  0  0  0  0  0  0  0  0  0  0  0
   -4.0029   -1.3517   31.9448 H   0  0  0  0  0  0  0  0  0  0  0  0
   -3.5060   -1.9724   33.4880 H   0  0  0  0  0  0  0  0  0  0  0  0
   -5.3226    2.6573   35.0034 H   0  0  0  0  0  0  0  0  0  0  0  0
   -7.1221    0.5949   35.4123 H   0  0  0  0  0  0  0  0  0  0  0  0
   -5.7488   -2.4799   34.4258 H   0  0  0  0  0  0  0  0  0  0  0  0
   -7.3366   -1.6562   34.5475 H   0  0  0  0  0  0  0  0  0  0  0  0
   -6.5613   -1.8614   32.9469 H   0  0  0  0  0  0  0  0  0  0  0  0
  1  2  1  0
  2  3  1  0
  3  4  1  0
  4  5  1  0
  5  6  2  0
  5  7  1  0
  7  8  2  0
  8  9  1  0
  9 10  2  0
 10 11  1  0
  2 12  1  0
 12 13  1  0
 13 14  2  0
 13 15  1  0
 15 16  1  0
 16 17  2  0
 17 18  1  0
 18 19  2  0
 19 20  1  0
 20 21  1  0
 11  7  1  0
 20 16  1  0
  1 22  1  0
  1 23  1  0
  1 24  1  0
  2 25  1  0
  3 26  1  0
  3 27  1  0
  4 28  1  0
  8 29  1  0
 10 30  1  0
 12 31  1  0
 15 32  1  0
 15 33  1  0
 18 34  1  0
 19 35  1  0
 21 36  1  0
 21 37  1  0
 21 38  1  0
M  END
>  <Energy>  (808) 
41.581099846545378

>  <compound_id>  (808) 
46407

>  <target_id>  (808) 
1

>  <reference_id>  (808) 
80

>  <inspiration_ids>  (808) 
[80, 7]

>  <energy_score>  (808) 
-10.543735973261974

>  <distance_score>  (808) 
10.99994932361123

>  <path>  (808) 
/opt/xchem-fragalysis-2/maxwin/BulkDock/SCRATCH/511020/C46407-P80/C46407-P80.minimised.mol

>  <scratch_subdir>  (808) 
/opt/xchem-fragalysis-2/maxwin/BulkDock/SCRATCH/511020/C46407-P80

>  <fragmenstein_runtime>  (808) 
10.162149667739868

>  <fragmenstein_outcome>  (808) 
too moved

>  <fragmenstein_mode>  (808) 
expansion

>  <fragmenstein_error>  (808) 


$$$$
C46407-P7
     RDKit          3D

 38 39  0  0  0  0  0  0  0  0999 V2000
    4.8450   -1.1388   26.6482 C   0  0  0  0  0  0  0  0  0  0  0  0
    3.6125   -1.3577   25.7648 C   0  0  0  0  0  0  0  0  0  0  0  0
    4.0257   -2.2382   24.3657 C   0  0  0  0  0  0  0  0  0  0  0  0
    4.7657   -1.3160   23.4213 N   0  0  0  0  0  0  0  0  0  0  0  0
    5.5093   -1.6180   21.8318 C   0  0  0  0  0  0  0  0  0  0  0  0
    5.6153   -2.7012   21.2556 O   0  0  0  0  0  0  0  0  0  0  0  0
    6.3899   -0.3145   20.8742 C   0  0  0  0  0  0  0  0  0  0  0  0
    7.3990   -0.5907   19.9453 C   0  0  0  0  0  0  0  0  0  0  0  0
    7.2937    0.2445   18.8640 N   0  0  0  0  0  0  0  0  0  0  0  0
    6.5455    1.2005   19.3491 C   0  0  0  0  0  0  0  0  0  0  0  0
    6.0642    0.9573   20.6035 O   0  0  0  0  0  0  0  0  0  0  0  0
    2.5015   -1.8229   26.6625 N   0  0  0  0  0  0  0  0  0  0  0  0
    1.9134   -1.2090   27.8786 C   0  0  0  0  0  0  0  0  0  0  0  0
    2.2357   -0.2257   28.4917 O   0  0  0  0  0  0  0  0  0  0  0  0
    0.7357   -2.1022   28.4708 C   0  0  0  0  0  0  0  0  0  0  0  0
   -0.3903   -1.3707   29.2520 C   0  0  0  0  0  0  0  0  0  0  0  0
   -0.9186   -0.1920   28.9523 N   0  0  0  0  0  0  0  0  0  0  0  0
   -1.8789    0.0788   29.8937 C   0  0  0  0  0  0  0  0  0  0  0  0
   -2.0010   -0.9594   30.7760 C   0  0  0  0  0  0  0  0  0  0  0  0
   -1.1127   -1.9038   30.3246 N   0  0  0  0  0  0  0  0  0  0  0  0
   -1.0294   -3.2266   30.8956 C   0  0  0  0  0  0  0  0  0  0  0  0
    5.7581   -1.0654   26.0622 H   0  0  0  0  0  0  0  0  0  0  0  0
    4.7422   -0.2150   27.2282 H   0  0  0  0  0  0  0  0  0  0  0  0
    4.9682   -1.9519   27.3708 H   0  0  0  0  0  0  0  0  0  0  0  0
    3.2991   -0.3639   25.4337 H   0  0  0  0  0  0  0  0  0  0  0  0
    3.1626   -2.6569   23.8668 H   0  0  0  0  0  0  0  0  0  0  0  0
    4.6640   -2.9700   24.7942 H   0  0  0  0  0  0  0  0  0  0  0  0
    4.7419   -0.3051   23.6046 H   0  0  0  0  0  0  0  0  0  0  0  0
    8.0265   -1.4460   20.0110 H   0  0  0  0  0  0  0  0  0  0  0  0
    6.2568    2.1320   18.8869 H   0  0  0  0  0  0  0  0  0  0  0  0
    1.9247   -2.5989   26.3706 H   0  0  0  0  0  0  0  0  0  0  0  0
    1.2181   -2.8231   29.1418 H   0  0  0  0  0  0  0  0  0  0  0  0
    0.2567   -2.6656   27.6720 H   0  0  0  0  0  0  0  0  0  0  0  0
   -2.4344    1.0028   29.8633 H   0  0  0  0  0  0  0  0  0  0  0  0
   -2.6466   -1.1190   31.6270 H   0  0  0  0  0  0  0  0  0  0  0  0
   -1.9299   -3.4372   31.4774 H   0  0  0  0  0  0  0  0  0  0  0  0
   -0.9351   -3.9518   30.0839 H   0  0  0  0  0  0  0  0  0  0  0  0
   -0.1475   -3.2610   31.5399 H   0  0  0  0  0  0  0  0  0  0  0  0
  1  2  1  0
  2  3  1  0
  3  4  1  0
  4  5  1  0
  5  6  2  0
  5  7  1  0
  7  8  2  0
  8  9  1  0
  9 10  2  0
 10 11  1  0
  2 12  1  0
 12 13  1  0
 13 14  2  0
 13 15  1  0
 15 16  1  0
 16 17  2  0
 17 18  1  0
 18 19  2  0
 19 20  1  0
 20 21  1  0
 11  7  1  0
 20 16  1  0
  1 22  1  0
  1 23  1  0
  1 24  1  0
  2 25  1  0
  3 26  1  0
  3 27  1  0
  4 28  1  0
  8 29  1  0
 10 30  1  0
 12 31  1  0
 15 32  1  0
 15 33  1  0
 18 34  1  0
 19 35  1  0
 21 36  1  0
 21 37  1  0
 21 38  1  0
M  END
>  <Energy>  (809) 
162.4072256400776

>  <compound_id>  (809) 
46407

>  <target_id>  (809) 
1

>  <reference_id>  (809) 
7

>  <inspiration_ids>  (809) 
[80, 7]

>  <energy_score>  (809) 
110.28238982027354

>  <distance_score>  (809) 
11.671239459967834

>  <path>  (809) 
/opt/xchem-fragalysis-2/maxwin/BulkDock/SCRATCH/511020/C46407-P7/C46407-P7.minimised.mol

>  <scratch_subdir>  (809) 
/opt/xchem-fragalysis-2/maxwin/BulkDock/SCRATCH/511020/C46407-P7

>  <fragmenstein_runtime>  (809) 
7.80660343170166

>  <fragmenstein_outcome>  (809) 
too moved

>  <fragmenstein_mode>  (809) 
expansion

>  <fragmenstein_error>  (809) 


$$$$
C11897-P80
     RDKit          3D

 45 47  0  0  0  0  0  0  0  0999 V2000
    2.5607   -0.6413   27.4566 C   0  0  0  0  0  0  0  0  0  0  0  0
    3.3389   -1.9517   27.2485 C   0  0  0  0  0  0  0  0  0  0  0  0
    2.4623   -3.1800   27.7860 C   0  0  0  0  0  0  0  0  0  0  0  0
    1.1734   -2.9610   28.5063 N   0  0  0  0  0  0  0  0  0  0  0  0
    0.8987   -2.3910   29.8067 C   0  0  0  0  0  0  0  0  0  0  0  0
    1.6290   -1.8769   30.6040 O   0  0  0  0  0  0  0  0  0  0  0  0
   -0.5276   -2.5447   30.3062 C   0  0  0  0  0  0  0  0  0  0  0  0
   -1.1916   -3.7746   30.3579 C   0  0  0  0  0  0  0  0  0  0  0  0
   -2.4281   -3.8911   31.0212 C   0  0  0  0  0  0  0  0  0  0  0  0
   -2.9820   -2.7678   31.6129 C   0  0  0  0  0  0  0  0  0  0  0  0
   -2.3934   -1.5550   31.5661 N   0  0  0  0  0  0  0  0  0  0  0  0
   -1.1708   -1.4831   30.9506 C   0  0  0  0  0  0  0  0  0  0  0  0
    3.7811   -2.0482   25.8002 N   0  0  0  0  0  0  0  0  0  0  0  0
    4.4314   -1.0493   24.9174 C   0  0  0  0  0  0  0  0  0  0  0  0
    4.6895    0.0933   25.1129 O   0  0  0  0  0  0  0  0  0  0  0  0
    4.9199   -1.8084   23.5016 C   0  0  0  0  0  0  0  0  0  0  0  0
    5.5931   -1.7430   21.7143 C   0  0  0  0  0  0  0  0  0  0  0  0
    5.9933   -2.8775   21.0048 N   0  0  0  0  0  0  0  0  0  0  0  0
    7.4793   -2.8737   20.8350 C   0  0  0  0  0  0  0  0  0  0  0  0
    7.8044   -1.6035   20.4626 C   0  0  0  0  0  0  0  0  0  0  0  0
    6.7755   -0.8381   20.8791 N   0  0  0  0  0  0  0  0  0  0  0  0
    4.6727   -1.9888   28.0128 C   0  0  0  0  0  0  0  0  0  0  0  0
    5.5332   -0.7651   28.2342 C   0  0  0  0  0  0  0  0  0  0  0  0
    4.8628   -1.4308   29.4047 C   0  0  0  0  0  0  0  0  0  0  0  0
    3.0599    0.2246   27.0139 H   0  0  0  0  0  0  0  0  0  0  0  0
    1.5676   -0.7055   27.0090 H   0  0  0  0  0  0  0  0  0  0  0  0
    2.4143   -0.4048   28.5133 H   0  0  0  0  0  0  0  0  0  0  0  0
    3.0641   -3.7652   28.4928 H   0  0  0  0  0  0  0  0  0  0  0  0
    2.2428   -3.8593   26.9622 H   0  0  0  0  0  0  0  0  0  0  0  0
    0.3284   -3.3821   28.1454 H   0  0  0  0  0  0  0  0  0  0  0  0
   -0.7184   -4.6679   29.9563 H   0  0  0  0  0  0  0  0  0  0  0  0
   -2.9217   -4.8547   31.1077 H   0  0  0  0  0  0  0  0  0  0  0  0
   -3.9223   -2.8152   32.1544 H   0  0  0  0  0  0  0  0  0  0  0  0
   -0.6903   -0.5080   31.0125 H   0  0  0  0  0  0  0  0  0  0  0  0
    3.6420   -2.9057   25.2844 H   0  0  0  0  0  0  0  0  0  0  0  0
    4.0160   -2.4133   23.3824 H   0  0  0  0  0  0  0  0  0  0  0  0
    5.7075   -2.3530   24.0268 H   0  0  0  0  0  0  0  0  0  0  0  0
    8.0702   -3.7843   20.7475 H   0  0  0  0  0  0  0  0  0  0  0  0
    8.5542   -1.1060   19.9273 H   0  0  0  0  0  0  0  0  0  0  0  0
    6.3669   -0.3608   20.1159 H   0  0  0  0  0  0  0  0  0  0  0  0
    5.2119   -2.9082   27.7924 H   0  0  0  0  0  0  0  0  0  0  0  0
    6.6056   -0.8799   28.1214 H   0  0  0  0  0  0  0  0  0  0  0  0
    5.1716    0.2057   27.9173 H   0  0  0  0  0  0  0  0  0  0  0  0
    5.4852   -1.9918   30.0933 H   0  0  0  0  0  0  0  0  0  0  0  0
    4.0535   -0.9039   29.8945 H   0  0  0  0  0  0  0  0  0  0  0  0
  1  2  1  0
  2  3  1  0
  3  4  1  0
  4  5  1  0
  5  6  2  0
  5  7  1  0
  7  8  2  0
  8  9  1  0
  9 10  2  0
 10 11  1  0
 11 12  2  0
  2 13  1  0
 13 14  1  0
 14 15  2  0
 14 16  1  0
 16 17  1  0
 17 18  2  0
 18 19  1  0
 19 20  2  0
 20 21  1  0
  2 22  1  0
 22 23  1  0
 23 24  1  0
 12  7  1  0
 21 17  1  0
 24 22  1  0
  1 25  1  0
  1 26  1  0
  1 27  1  0
  3 28  1  0
  3 29  1  0
  4 30  1  0
  8 31  1  0
  9 32  1  0
 10 33  1  0
 12 34  1  0
 13 35  1  0
 16 36  1  0
 16 37  1  0
 19 38  1  0
 20 39  1  0
 21 40  1  0
 22 41  1  0
 23 42  1  0
 23 43  1  0
 24 44  1  0
 24 45  1  0
M  END
>  <Energy>  (810) 
268.15531317652602

>  <compound_id>  (810) 
11897

>  <target_id>  (810) 
1

>  <reference_id>  (810) 
80

>  <inspiration_ids>  (810) 
[80, 7]

>  <energy_score>  (810) 
182.9736238569078

>  <distance_score>  (810) 
10.665791569745853

>  <path>  (810) 
/opt/xchem-fragalysis-2/maxwin/BulkDock/SCRATCH/511020/C11897-P80/C11897-P80.minimised.mol

>  <scratch_subdir>  (810) 
/opt/xchem-fragalysis-2/maxwin/BulkDock/SCRATCH/511020/C11897-P80

>  <fragmenstein_runtime>  (810) 
13.571898698806763

>  <fragmenstein_outcome>  (810) 
too moved

>  <fragmenstein_mode>  (810) 
expansion

>  <fragmenstein_error>  (810) 


$$$$
C11897-P7
     RDKit          3D

 45 47  0  0  0  0  0  0  0  0999 V2000
   -1.3089    2.0268   27.2979 C   0  0  0  0  0  0  0  0  0  0  0  0
    0.0749    1.9812   27.9777 C   0  0  0  0  0  0  0  0  0  0  0  0
    0.1780    0.5929   28.7347 C   0  0  0  0  0  0  0  0  0  0  0  0
   -0.7863    0.3264   29.8222 N   0  0  0  0  0  0  0  0  0  0  0  0
   -1.5644   -0.8532   30.1320 C   0  0  0  0  0  0  0  0  0  0  0  0
   -1.6843   -1.8891   29.5380 O   0  0  0  0  0  0  0  0  0  0  0  0
   -2.4241   -0.8042   31.4055 C   0  0  0  0  0  0  0  0  0  0  0  0
   -3.0872   -1.9696   31.8448 C   0  0  0  0  0  0  0  0  0  0  0  0
   -4.0145   -1.9415   32.8975 C   0  0  0  0  0  0  0  0  0  0  0  0
   -4.2720   -0.7307   33.5070 C   0  0  0  0  0  0  0  0  0  0  0  0
   -3.6484    0.4132   33.1502 N   0  0  0  0  0  0  0  0  0  0  0  0
   -2.7293    0.3332   32.1365 C   0  0  0  0  0  0  0  0  0  0  0  0
    1.1743    2.1358   26.9827 N   0  0  0  0  0  0  0  0  0  0  0  0
    1.1779    2.7179   25.6357 C   0  0  0  0  0  0  0  0  0  0  0  0
    0.2778    3.1433   24.9655 O   0  0  0  0  0  0  0  0  0  0  0  0
    2.6304    2.7260   25.1076 C   0  0  0  0  0  0  0  0  0  0  0  0
    2.9336    3.6203   23.9259 C   0  0  0  0  0  0  0  0  0  0  0  0
    4.0164    4.3797   23.8040 N   0  0  0  0  0  0  0  0  0  0  0  0
    3.9739    4.9146   22.5389 C   0  0  0  0  0  0  0  0  0  0  0  0
    2.8575    4.4790   21.8731 C   0  0  0  0  0  0  0  0  0  0  0  0
    2.2225    3.6407   22.7480 N   0  0  0  0  0  0  0  0  0  0  0  0
    0.2127    3.1791   28.9314 C   0  0  0  0  0  0  0  0  0  0  0  0
    1.5618    3.8107   29.2435 C   0  0  0  0  0  0  0  0  0  0  0  0
    0.8095    3.1115   30.3286 C   0  0  0  0  0  0  0  0  0  0  0  0
   -1.4772    2.9773   26.7803 H   0  0  0  0  0  0  0  0  0  0  0  0
   -1.4196    1.2212   26.5657 H   0  0  0  0  0  0  0  0  0  0  0  0
   -2.1158    1.9280   28.0328 H   0  0  0  0  0  0  0  0  0  0  0  0
    1.1737    0.4861   29.1803 H   0  0  0  0  0  0  0  0  0  0  0  0
    0.0802   -0.2249   28.0099 H   0  0  0  0  0  0  0  0  0  0  0  0
   -0.8573    0.9776   30.5876 H   0  0  0  0  0  0  0  0  0  0  0  0
   -2.9044   -2.9170   31.3390 H   0  0  0  0  0  0  0  0  0  0  0  0
   -4.5233   -2.8459   33.2129 H   0  0  0  0  0  0  0  0  0  0  0  0
   -4.9890   -0.6443   34.3178 H   0  0  0  0  0  0  0  0  0  0  0  0
   -2.2533    1.2822   31.9313 H   0  0  0  0  0  0  0  0  0  0  0  0
    2.1080    1.8067   27.2052 H   0  0  0  0  0  0  0  0  0  0  0  0
    2.8889    1.6955   24.8482 H   0  0  0  0  0  0  0  0  0  0  0  0
    3.2876    3.0404   25.9285 H   0  0  0  0  0  0  0  0  0  0  0  0
    4.7509    5.5725   22.1738 H   0  0  0  0  0  0  0  0  0  0  0  0
    2.4855    4.6582   20.8755 H   0  0  0  0  0  0  0  0  0  0  0  0
    1.3521    3.1614   22.5736 H   0  0  0  0  0  0  0  0  0  0  0  0
   -0.5839    3.9032   28.7666 H   0  0  0  0  0  0  0  0  0  0  0  0
    2.4810    3.3501   28.9031 H   0  0  0  0  0  0  0  0  0  0  0  0
    1.6089    4.8951   29.2660 H   0  0  0  0  0  0  0  0  0  0  0  0
    1.2542    2.2007   30.7093 H   0  0  0  0  0  0  0  0  0  0  0  0
    0.3667    3.7322   31.1006 H   0  0  0  0  0  0  0  0  0  0  0  0
  1  2  1  0
  2  3  1  0
  3  4  1  0
  4  5  1  0
  5  6  2  0
  5  7  1  0
  7  8  2  0
  8  9  1  0
  9 10  2  0
 10 11  1  0
 11 12  2  0
  2 13  1  0
 13 14  1  0
 14 15  2  0
 14 16  1  0
 16 17  1  0
 17 18  2  0
 18 19  1  0
 19 20  2  0
 20 21  1  0
  2 22  1  0
 22 23  1  0
 23 24  1  0
 12  7  1  0
 21 17  1  0
 24 22  1  0
  1 25  1  0
  1 26  1  0
  1 27  1  0
  3 28  1  0
  3 29  1  0
  4 30  1  0
  8 31  1  0
  9 32  1  0
 10 33  1  0
 12 34  1  0
 13 35  1  0
 16 36  1  0
 16 37  1  0
 19 38  1  0
 20 39  1  0
 21 40  1  0
 22 41  1  0
 23 42  1  0
 23 43  1  0
 24 44  1  0
 24 45  1  0
M  END
>  <Energy>  (811) 
80.975738699884772

>  <compound_id>  (811) 
11897

>  <target_id>  (811) 
1

>  <reference_id>  (811) 
7

>  <inspiration_ids>  (811) 
[80, 7]

>  <energy_score>  (811) 
-4.2059506197337555

>  <distance_score>  (811) 
11.84690538146351

>  <path>  (811) 
/opt/xchem-fragalysis-2/maxwin/BulkDock/SCRATCH/511020/C11897-P7/C11897-P7.minimised.mol

>  <scratch_subdir>  (811) 
/opt/xchem-fragalysis-2/maxwin/BulkDock/SCRATCH/511020/C11897-P7

>  <fragmenstein_runtime>  (811) 
19.05647373199463

>  <fragmenstein_outcome>  (811) 
too moved

>  <fragmenstein_mode>  (811) 
expansion

>  <fragmenstein_error>  (811) 


$$$$
C8991-P80
     RDKit          3D

 42 44  0  0  0  0  0  0  0  0999 V2000
   -0.6358   -0.1736   28.1190 C   0  0  0  0  0  0  0  0  0  0  0  0
    0.3137   -0.8725   29.1028 C   0  0  0  0  0  0  0  0  0  0  0  0
    1.7180   -0.1345   29.0592 C   0  0  0  0  0  0  0  0  0  0  0  0
    2.4888   -0.2175   27.8004 N   0  0  0  0  0  0  0  0  0  0  0  0
    3.4754   -1.1691   27.3581 C   0  0  0  0  0  0  0  0  0  0  0  0
    3.8661   -2.1808   27.8648 O   0  0  0  0  0  0  0  0  0  0  0  0
    4.1227   -0.7489   26.0599 C   0  0  0  0  0  0  0  0  0  0  0  0
    5.0146   -1.5512   25.3508 C   0  0  0  0  0  0  0  0  0  0  0  0
    5.5950   -0.7555   23.9422 S   0  0  0  0  0  0  0  0  0  0  0  0
    4.6316    0.5981   24.3533 C   0  0  0  0  0  0  0  0  0  0  0  0
    3.9236    0.5083   25.4638 N   0  0  0  0  0  0  0  0  0  0  0  0
   -0.2839   -0.8995   30.4745 N   0  0  0  0  0  0  0  0  0  0  0  0
   -1.5218   -0.3152   30.9942 C   0  0  0  0  0  0  0  0  0  0  0  0
   -2.3299    0.4009   30.4689 O   0  0  0  0  0  0  0  0  0  0  0  0
   -1.7473   -0.7738   32.4590 C   0  0  0  0  0  0  0  0  0  0  0  0
   -3.2035   -0.9039   32.8688 C   0  0  0  0  0  0  0  0  0  0  0  0
   -3.8191   -2.0137   33.2512 N   0  0  0  0  0  0  0  0  0  0  0  0
   -5.0716   -1.6275   33.6747 C   0  0  0  0  0  0  0  0  0  0  0  0
   -5.2335   -0.2715   33.5447 C   0  0  0  0  0  0  0  0  0  0  0  0
   -4.0521    0.1758   33.0136 N   0  0  0  0  0  0  0  0  0  0  0  0
    0.5261   -2.3209   28.6608 C   0  0  0  0  0  0  0  0  0  0  0  0
    1.1618   -3.3554   29.5653 C   0  0  0  0  0  0  0  0  0  0  0  0
   -0.2831   -3.4901   29.1734 C   0  0  0  0  0  0  0  0  0  0  0  0
   -1.5984   -0.6936   28.0536 H   0  0  0  0  0  0  0  0  0  0  0  0
   -0.8256    0.8636   28.4157 H   0  0  0  0  0  0  0  0  0  0  0  0
   -0.2132   -0.1436   27.1142 H   0  0  0  0  0  0  0  0  0  0  0  0
    2.3614   -0.5623   29.8377 H   0  0  0  0  0  0  0  0  0  0  0  0
    1.5879    0.9290   29.2884 H   0  0  0  0  0  0  0  0  0  0  0  0
    2.4741    0.5685   27.1543 H   0  0  0  0  0  0  0  0  0  0  0  0
    5.3366   -2.5514   25.6051 H   0  0  0  0  0  0  0  0  0  0  0  0
    4.6115    1.4833   23.7313 H   0  0  0  0  0  0  0  0  0  0  0  0
    0.1922   -1.3866   31.2225 H   0  0  0  0  0  0  0  0  0  0  0  0
   -1.2732   -1.7494   32.6178 H   0  0  0  0  0  0  0  0  0  0  0  0
   -1.2496   -0.0484   33.1126 H   0  0  0  0  0  0  0  0  0  0  0  0
   -5.7871   -2.3479   34.0458 H   0  0  0  0  0  0  0  0  0  0  0  0
   -6.0602    0.3956   33.7492 H   0  0  0  0  0  0  0  0  0  0  0  0
   -3.8369    1.1290   32.7515 H   0  0  0  0  0  0  0  0  0  0  0  0
    0.8183   -2.3669   27.6152 H   0  0  0  0  0  0  0  0  0  0  0  0
    1.8847   -4.0233   29.1096 H   0  0  0  0  0  0  0  0  0  0  0  0
    1.3988   -3.1069   30.5904 H   0  0  0  0  0  0  0  0  0  0  0  0
   -1.0471   -3.3154   29.9186 H   0  0  0  0  0  0  0  0  0  0  0  0
   -0.5423   -4.2653   28.4597 H   0  0  0  0  0  0  0  0  0  0  0  0
  1  2  1  0
  2  3  1  0
  3  4  1  0
  4  5  1  0
  5  6  2  0
  5  7  1  0
  7  8  2  0
  8  9  1  0
  9 10  1  0
 10 11  2  0
  2 12  1  0
 12 13  1  0
 13 14  2  0
 13 15  1  0
 15 16  1  0
 16 17  2  0
 17 18  1  0
 18 19  2  0
 19 20  1  0
  2 21  1  0
 21 22  1  0
 22 23  1  0
 11  7  1  0
 20 16  1  0
 23 21  1  0
  1 24  1  0
  1 25  1  0
  1 26  1  0
  3 27  1  0
  3 28  1  0
  4 29  1  0
  8 30  1  0
 10 31  1  0
 12 32  1  0
 15 33  1  0
 15 34  1  0
 18 35  1  0
 19 36  1  0
 20 37  1  0
 21 38  1  0
 22 39  1  0
 22 40  1  0
 23 41  1  0
 23 42  1  0
M  END
>  <Energy>  (812) 
62.173638342642661

>  <compound_id>  (812) 
8991

>  <target_id>  (812) 
1

>  <reference_id>  (812) 
80

>  <inspiration_ids>  (812) 
[80, 7]

>  <energy_score>  (812) 
-92.3465292423025

>  <distance_score>  (812) 
12.0366374058548

>  <path>  (812) 
/opt/xchem-fragalysis-2/maxwin/BulkDock/SCRATCH/511020/C8991-P80/C8991-P80.minimised.mol

>  <scratch_subdir>  (812) 
/opt/xchem-fragalysis-2/maxwin/BulkDock/SCRATCH/511020/C8991-P80

>  <fragmenstein_runtime>  (812) 
22.194655179977417

>  <fragmenstein_outcome>  (812) 
too moved

>  <fragmenstein_mode>  (812) 
expansion

>  <fragmenstein_error>  (812) 


$$$$
C8991-P7
     RDKit          3D

 42 44  0  0  0  0  0  0  0  0999 V2000
    1.3961   -5.0932   29.8073 C   0  0  0  0  0  0  0  0  0  0  0  0
    0.1233   -4.6937   29.0063 C   0  0  0  0  0  0  0  0  0  0  0  0
   -0.5737   -5.9973   27.9933 C   0  0  0  0  0  0  0  0  0  0  0  0
   -0.1704   -6.7834   26.6365 N   0  0  0  0  0  0  0  0  0  0  0  0
   -0.6915   -6.6422   25.2028 C   0  0  0  0  0  0  0  0  0  0  0  0
   -1.4642   -5.8542   24.7547 O   0  0  0  0  0  0  0  0  0  0  0  0
   -0.1395   -7.6597   23.9743 C   0  0  0  0  0  0  0  0  0  0  0  0
    1.0453   -8.2456   23.5361 C   0  0  0  0  0  0  0  0  0  0  0  0
    1.0003   -9.1234   22.0219 S   0  0  0  0  0  0  0  0  0  0  0  0
   -0.6560   -8.8280   21.9778 C   0  0  0  0  0  0  0  0  0  0  0  0
   -1.1298   -8.1445   22.9955 N   0  0  0  0  0  0  0  0  0  0  0  0
   -0.6595   -4.3147   30.3016 N   0  0  0  0  0  0  0  0  0  0  0  0
   -1.4400   -3.1118   30.6426 C   0  0  0  0  0  0  0  0  0  0  0  0
   -1.7382   -2.1576   29.9779 O   0  0  0  0  0  0  0  0  0  0  0  0
   -1.7941   -3.1418   32.1480 C   0  0  0  0  0  0  0  0  0  0  0  0
   -3.0708   -2.4750   32.5883 C   0  0  0  0  0  0  0  0  0  0  0  0
   -4.0107   -3.0312   33.3360 N   0  0  0  0  0  0  0  0  0  0  0  0
   -4.8531   -2.0110   33.7100 C   0  0  0  0  0  0  0  0  0  0  0  0
   -4.4395   -0.8213   33.1710 C   0  0  0  0  0  0  0  0  0  0  0  0
   -3.3292   -1.1330   32.4297 N   0  0  0  0  0  0  0  0  0  0  0  0
    0.3544   -3.3873   28.2672 C   0  0  0  0  0  0  0  0  0  0  0  0
    1.7054   -2.8133   27.8578 C   0  0  0  0  0  0  0  0  0  0  0  0
    0.9627   -2.1677   28.9693 C   0  0  0  0  0  0  0  0  0  0  0  0
    1.5677   -4.4302   30.6712 H   0  0  0  0  0  0  0  0  0  0  0  0
    1.2644   -6.0768   30.2511 H   0  0  0  0  0  0  0  0  0  0  0  0
    2.3410   -4.9912   29.2933 H   0  0  0  0  0  0  0  0  0  0  0  0
   -0.7581   -6.8153   28.6993 H   0  0  0  0  0  0  0  0  0  0  0  0
   -1.5195   -5.5900   27.7032 H   0  0  0  0  0  0  0  0  0  0  0  0
    0.4100   -7.6065   26.6972 H   0  0  0  0  0  0  0  0  0  0  0  0
    2.0220   -8.3060   23.9639 H   0  0  0  0  0  0  0  0  0  0  0  0
   -1.3007   -9.1843   21.1860 H   0  0  0  0  0  0  0  0  0  0  0  0
   -0.5350   -4.8776   31.1345 H   0  0  0  0  0  0  0  0  0  0  0  0
   -0.9674   -2.6137   32.6448 H   0  0  0  0  0  0  0  0  0  0  0  0
   -1.7485   -4.1597   32.5455 H   0  0  0  0  0  0  0  0  0  0  0  0
   -5.7042   -2.1800   34.3536 H   0  0  0  0  0  0  0  0  0  0  0  0
   -4.8320    0.1846   33.2221 H   0  0  0  0  0  0  0  0  0  0  0  0
   -2.7771   -0.4942   31.8698 H   0  0  0  0  0  0  0  0  0  0  0  0
   -0.5401   -3.1251   27.7175 H   0  0  0  0  0  0  0  0  0  0  0  0
    2.6397   -3.2798   28.1218 H   0  0  0  0  0  0  0  0  0  0  0  0
    1.7883   -2.2314   26.9485 H   0  0  0  0  0  0  0  0  0  0  0  0
    1.3702   -2.2550   29.9671 H   0  0  0  0  0  0  0  0  0  0  0  0
    0.4999   -1.2050   28.7732 H   0  0  0  0  0  0  0  0  0  0  0  0
  1  2  1  0
  2  3  1  0
  3  4  1  0
  4  5  1  0
  5  6  2  0
  5  7  1  0
  7  8  2  0
  8  9  1  0
  9 10  1  0
 10 11  2  0
  2 12  1  0
 12 13  1  0
 13 14  2  0
 13 15  1  0
 15 16  1  0
 16 17  2  0
 17 18  1  0
 18 19  2  0
 19 20  1  0
  2 21  1  0
 21 22  1  0
 22 23  1  0
 11  7  1  0
 20 16  1  0
 23 21  1  0
  1 24  1  0
  1 25  1  0
  1 26  1  0
  3 27  1  0
  3 28  1  0
  4 29  1  0
  8 30  1  0
 10 31  1  0
 12 32  1  0
 15 33  1  0
 15 34  1  0
 18 35  1  0
 19 36  1  0
 20 37  1  0
 21 38  1  0
 22 39  1  0
 22 40  1  0
 23 41  1  0
 23 42  1  0
M  END
>  <Energy>  (813) 
180.43136296980973

>  <compound_id>  (813) 
8991

>  <target_id>  (813) 
1

>  <reference_id>  (813) 
7

>  <inspiration_ids>  (813) 
[80, 7]

>  <energy_score>  (813) 
25.91119538486464

>  <distance_score>  (813) 
13.463070467655044

>  <path>  (813) 
/opt/xchem-fragalysis-2/maxwin/BulkDock/SCRATCH/511020/C8991-P7/C8991-P7.minimised.mol

>  <scratch_subdir>  (813) 
/opt/xchem-fragalysis-2/maxwin/BulkDock/SCRATCH/511020/C8991-P7

>  <fragmenstein_runtime>  (813) 
24.877192735671997

>  <fragmenstein_outcome>  (813) 
too moved

>  <fragmenstein_mode>  (813) 
expansion

>  <fragmenstein_error>  (813) 


$$$$
C9626-P80
     RDKit          3D

 45 47  0  0  0  0  0  0  0  0999 V2000
    1.9428   -2.6689   28.6106 C   0  0  0  0  0  0  0  0  0  0  0  0
    3.0825   -1.9940   29.4120 C   0  0  0  0  0  0  0  0  0  0  0  0
    2.4853   -0.7108   30.1061 C   0  0  0  0  0  0  0  0  0  0  0  0
    1.1885   -0.8450   30.8023 N   0  0  0  0  0  0  0  0  0  0  0  0
    0.8232   -0.5986   32.1707 C   0  0  0  0  0  0  0  0  0  0  0  0
    1.4937   -0.2970   33.1164 O   0  0  0  0  0  0  0  0  0  0  0  0
   -0.6874   -0.7157   32.4336 C   0  0  0  0  0  0  0  0  0  0  0  0
   -1.1825   -0.5289   33.7279 C   0  0  0  0  0  0  0  0  0  0  0  0
   -2.5640   -0.5972   33.9580 C   0  0  0  0  0  0  0  0  0  0  0  0
   -3.4169   -0.8453   32.8919 C   0  0  0  0  0  0  0  0  0  0  0  0
   -2.8456   -1.0244   31.6387 C   0  0  0  0  0  0  0  0  0  0  0  0
   -1.5086   -0.9714   31.3761 N   0  0  0  0  0  0  0  0  0  0  0  0
    4.1378   -1.6406   28.4117 N   0  0  0  0  0  0  0  0  0  0  0  0
    5.5296   -1.2177   28.5917 C   0  0  0  0  0  0  0  0  0  0  0  0
    6.1492   -0.9725   29.5898 O   0  0  0  0  0  0  0  0  0  0  0  0
    6.1671   -0.9930   27.2010 C   0  0  0  0  0  0  0  0  0  0  0  0
    7.6576   -1.2401   27.0375 C   0  0  0  0  0  0  0  0  0  0  0  0
    8.2409   -2.2517   26.4100 N   0  0  0  0  0  0  0  0  0  0  0  0
    9.5473   -1.8974   26.1942 C   0  0  0  0  0  0  0  0  0  0  0  0
    9.7872   -0.6522   26.7124 C   0  0  0  0  0  0  0  0  0  0  0  0
    8.5996   -0.2634   27.2784 N   0  0  0  0  0  0  0  0  0  0  0  0
    3.6865   -3.0329   30.3470 C   0  0  0  0  0  0  0  0  0  0  0  0
    4.1348   -2.7411   31.7607 C   0  0  0  0  0  0  0  0  0  0  0  0
    2.9430   -3.6255   31.5220 C   0  0  0  0  0  0  0  0  0  0  0  0
    1.4925   -1.9673   27.8988 H   0  0  0  0  0  0  0  0  0  0  0  0
    2.3144   -3.5209   28.0332 H   0  0  0  0  0  0  0  0  0  0  0  0
    1.1511   -3.0503   29.2642 H   0  0  0  0  0  0  0  0  0  0  0  0
    3.2045   -0.2729   30.8052 H   0  0  0  0  0  0  0  0  0  0  0  0
    2.3082    0.0498   29.3350 H   0  0  0  0  0  0  0  0  0  0  0  0
    0.3420   -0.9971   30.2556 H   0  0  0  0  0  0  0  0  0  0  0  0
   -0.5020   -0.3236   34.5499 H   0  0  0  0  0  0  0  0  0  0  0  0
   -2.9562   -0.4485   34.9601 H   0  0  0  0  0  0  0  0  0  0  0  0
   -4.4914   -0.8967   33.0266 H   0  0  0  0  0  0  0  0  0  0  0  0
   -3.4706   -1.2223   30.7708 H   0  0  0  0  0  0  0  0  0  0  0  0
    3.9747   -1.8383   27.4279 H   0  0  0  0  0  0  0  0  0  0  0  0
    5.9641    0.0614   26.9676 H   0  0  0  0  0  0  0  0  0  0  0  0
    5.6441   -1.5743   26.4378 H   0  0  0  0  0  0  0  0  0  0  0  0
   10.2338   -2.5527   25.6748 H   0  0  0  0  0  0  0  0  0  0  0  0
   10.6706   -0.0319   26.7444 H   0  0  0  0  0  0  0  0  0  0  0  0
    8.4193    0.6126   27.7480 H   0  0  0  0  0  0  0  0  0  0  0  0
    4.3067   -3.7333   29.7926 H   0  0  0  0  0  0  0  0  0  0  0  0
    3.9595   -1.7711   32.2089 H   0  0  0  0  0  0  0  0  0  0  0  0
    5.0611   -3.1992   32.0915 H   0  0  0  0  0  0  0  0  0  0  0  0
    1.9687   -3.2409   31.7922 H   0  0  0  0  0  0  0  0  0  0  0  0
    3.0601   -4.6865   31.7125 H   0  0  0  0  0  0  0  0  0  0  0  0
  1  2  1  0
  2  3  1  0
  3  4  1  0
  4  5  1  0
  5  6  2  0
  5  7  1  0
  7  8  2  0
  8  9  1  0
  9 10  2  0
 10 11  1  0
 11 12  2  0
  2 13  1  0
 13 14  1  0
 14 15  2  0
 14 16  1  0
 16 17  1  0
 17 18  2  0
 18 19  1  0
 19 20  2  0
 20 21  1  0
  2 22  1  0
 22 23  1  0
 23 24  1  0
 12  7  1  0
 21 17  1  0
 24 22  1  0
  1 25  1  0
  1 26  1  0
  1 27  1  0
  3 28  1  0
  3 29  1  0
  4 30  1  0
  8 31  1  0
  9 32  1  0
 10 33  1  0
 11 34  1  0
 13 35  1  0
 16 36  1  0
 16 37  1  0
 19 38  1  0
 20 39  1  0
 21 40  1  0
 22 41  1  0
 23 42  1  0
 23 43  1  0
 24 44  1  0
 24 45  1  0
M  END
>  <Energy>  (814) 
100.60632012356

>  <compound_id>  (814) 
9626

>  <target_id>  (814) 
1

>  <reference_id>  (814) 
80

>  <inspiration_ids>  (814) 
[80, 7]

>  <energy_score>  (814) 
-23.96640168405105

>  <distance_score>  (814) 
12.977459942214912

>  <path>  (814) 
/opt/xchem-fragalysis-2/maxwin/BulkDock/SCRATCH/511020/C9626-P80/C9626-P80.minimised.mol

>  <scratch_subdir>  (814) 
/opt/xchem-fragalysis-2/maxwin/BulkDock/SCRATCH/511020/C9626-P80

>  <fragmenstein_runtime>  (814) 
22.143614292144775

>  <fragmenstein_outcome>  (814) 
too moved

>  <fragmenstein_mode>  (814) 
expansion

>  <fragmenstein_error>  (814) 


$$$$
C9626-P7
     RDKit          3D

 45 47  0  0  0  0  0  0  0  0999 V2000
    0.5869   -2.3917   32.0517 C   0  0  0  0  0  0  0  0  0  0  0  0
    0.2088   -1.6225   30.7739 C   0  0  0  0  0  0  0  0  0  0  0  0
   -0.6071   -0.3316   31.1675 C   0  0  0  0  0  0  0  0  0  0  0  0
   -1.8880   -0.5259   31.8457 N   0  0  0  0  0  0  0  0  0  0  0  0
   -2.2121   -0.6001   33.2398 C   0  0  0  0  0  0  0  0  0  0  0  0
   -1.5066   -0.6010   34.2070 O   0  0  0  0  0  0  0  0  0  0  0  0
   -3.7193   -0.6608   33.4924 C   0  0  0  0  0  0  0  0  0  0  0  0
   -4.2077   -0.6558   34.8001 C   0  0  0  0  0  0  0  0  0  0  0  0
   -5.5905   -0.6448   35.0120 C   0  0  0  0  0  0  0  0  0  0  0  0
   -6.4444   -0.6362   33.9170 C   0  0  0  0  0  0  0  0  0  0  0  0
   -5.8766   -0.6490   32.6504 C   0  0  0  0  0  0  0  0  0  0  0  0
   -4.5398   -0.6721   32.4046 N   0  0  0  0  0  0  0  0  0  0  0  0
    1.4797   -1.2351   30.1045 N   0  0  0  0  0  0  0  0  0  0  0  0
    2.4861   -2.0401   29.4307 C   0  0  0  0  0  0  0  0  0  0  0  0
    2.5074   -3.2137   29.1736 O   0  0  0  0  0  0  0  0  0  0  0  0
    3.7456   -1.2062   29.1103 C   0  0  0  0  0  0  0  0  0  0  0  0
    3.8983   -0.8976   27.6588 C   0  0  0  0  0  0  0  0  0  0  0  0
    3.5569    0.2372   27.0817 N   0  0  0  0  0  0  0  0  0  0  0  0
    3.8763    0.0789   25.7649 C   0  0  0  0  0  0  0  0  0  0  0  0
    4.4896   -1.1225   25.5392 C   0  0  0  0  0  0  0  0  0  0  0  0
    4.5101   -1.7326   26.7550 N   0  0  0  0  0  0  0  0  0  0  0  0
   -0.6187   -2.4242   29.7813 C   0  0  0  0  0  0  0  0  0  0  0  0
   -1.7436   -3.3354   30.2225 C   0  0  0  0  0  0  0  0  0  0  0  0
   -0.5066   -3.9218   29.6033 C   0  0  0  0  0  0  0  0  0  0  0  0
    1.1653   -1.7528   32.7299 H   0  0  0  0  0  0  0  0  0  0  0  0
   -0.2876   -2.7489   32.6023 H   0  0  0  0  0  0  0  0  0  0  0  0
    1.2142   -3.2625   31.8325 H   0  0  0  0  0  0  0  0  0  0  0  0
    0.0084    0.2937   31.8257 H   0  0  0  0  0  0  0  0  0  0  0  0
   -0.8228    0.2579   30.2683 H   0  0  0  0  0  0  0  0  0  0  0  0
   -2.7433   -0.6352   31.3000 H   0  0  0  0  0  0  0  0  0  0  0  0
   -3.5218   -0.6421   35.6425 H   0  0  0  0  0  0  0  0  0  0  0  0
   -5.9856   -0.6268   36.0236 H   0  0  0  0  0  0  0  0  0  0  0  0
   -7.5216   -0.6143   34.0374 H   0  0  0  0  0  0  0  0  0  0  0  0
   -6.5056   -0.6337   31.7633 H   0  0  0  0  0  0  0  0  0  0  0  0
    1.8333   -0.2927   30.2208 H   0  0  0  0  0  0  0  0  0  0  0  0
    4.6120   -1.7768   29.4679 H   0  0  0  0  0  0  0  0  0  0  0  0
    3.7514   -0.2723   29.6830 H   0  0  0  0  0  0  0  0  0  0  0  0
    3.6167    0.8356   25.0422 H   0  0  0  0  0  0  0  0  0  0  0  0
    4.8625   -1.5941   24.6441 H   0  0  0  0  0  0  0  0  0  0  0  0
    4.9047   -2.6500   26.9316 H   0  0  0  0  0  0  0  0  0  0  0  0
   -0.7858   -1.8542   28.8695 H   0  0  0  0  0  0  0  0  0  0  0  0
   -2.6562   -3.3093   29.6403 H   0  0  0  0  0  0  0  0  0  0  0  0
   -1.9128   -3.5173   31.2763 H   0  0  0  0  0  0  0  0  0  0  0  0
   -0.5626   -4.2995   28.5890 H   0  0  0  0  0  0  0  0  0  0  0  0
    0.1740   -4.4815   30.2322 H   0  0  0  0  0  0  0  0  0  0  0  0
  1  2  1  0
  2  3  1  0
  3  4  1  0
  4  5  1  0
  5  6  2  0
  5  7  1  0
  7  8  2  0
  8  9  1  0
  9 10  2  0
 10 11  1  0
 11 12  2  0
  2 13  1  0
 13 14  1  0
 14 15  2  0
 14 16  1  0
 16 17  1  0
 17 18  2  0
 18 19  1  0
 19 20  2  0
 20 21  1  0
  2 22  1  0
 22 23  1  0
 23 24  1  0
 12  7  1  0
 21 17  1  0
 24 22  1  0
  1 25  1  0
  1 26  1  0
  1 27  1  0
  3 28  1  0
  3 29  1  0
  4 30  1  0
  8 31  1  0
  9 32  1  0
 10 33  1  0
 11 34  1  0
 13 35  1  0
 16 36  1  0
 16 37  1  0
 19 38  1  0
 20 39  1  0
 21 40  1  0
 22 41  1  0
 23 42  1  0
 23 43  1  0
 24 44  1  0
 24 45  1  0
M  END
>  <Energy>  (815) 
89.908975989181954

>  <compound_id>  (815) 
9626

>  <target_id>  (815) 
1

>  <reference_id>  (815) 
7

>  <inspiration_ids>  (815) 
[80, 7]

>  <energy_score>  (815) 
-34.66374581842962

>  <distance_score>  (815) 
12.026011678765842

>  <path>  (815) 
/opt/xchem-fragalysis-2/maxwin/BulkDock/SCRATCH/511020/C9626-P7/C9626-P7.minimised.mol

>  <scratch_subdir>  (815) 
/opt/xchem-fragalysis-2/maxwin/BulkDock/SCRATCH/511020/C9626-P7

>  <fragmenstein_runtime>  (815) 
18.42673373222351

>  <fragmenstein_outcome>  (815) 
too moved

>  <fragmenstein_mode>  (815) 
expansion

>  <fragmenstein_error>  (815) 


$$$$
C11945-P80
     RDKit          3D

 45 47  0  0  0  0  0  0  0  0999 V2000
   -1.0186   -1.9425   28.9670 C   0  0  0  0  0  0  0  0  0  0  0  0
    0.2269   -1.0078   29.1217 C   0  0  0  0  0  0  0  0  0  0  0  0
    0.6061   -0.9924   30.6520 C   0  0  0  0  0  0  0  0  0  0  0  0
   -0.5142   -0.6653   31.5463 N   0  0  0  0  0  0  0  0  0  0  0  0
   -1.5240   -1.5025   32.1401 C   0  0  0  0  0  0  0  0  0  0  0  0
   -1.6632   -2.6928   32.1212 O   0  0  0  0  0  0  0  0  0  0  0  0
   -2.6487   -0.7595   32.8420 C   0  0  0  0  0  0  0  0  0  0  0  0
   -3.3734   -1.4354   33.8380 C   0  0  0  0  0  0  0  0  0  0  0  0
   -4.4673   -0.8199   34.4273 C   0  0  0  0  0  0  0  0  0  0  0  0
   -4.8876    0.4153   34.0979 N   0  0  0  0  0  0  0  0  0  0  0  0
   -4.1892    1.0487   33.1276 C   0  0  0  0  0  0  0  0  0  0  0  0
   -3.0797    0.5162   32.4777 C   0  0  0  0  0  0  0  0  0  0  0  0
    1.3480   -1.5645   28.2770 N   0  0  0  0  0  0  0  0  0  0  0  0
    2.5837   -0.9274   27.7604 C   0  0  0  0  0  0  0  0  0  0  0  0
    2.9584    0.2112   27.8202 O   0  0  0  0  0  0  0  0  0  0  0  0
    3.4587   -2.0219   27.0776 C   0  0  0  0  0  0  0  0  0  0  0  0
    4.6965   -1.6265   26.2746 C   0  0  0  0  0  0  0  0  0  0  0  0
    5.9413   -2.0107   26.5344 N   0  0  0  0  0  0  0  0  0  0  0  0
    6.7090   -1.6549   25.4487 C   0  0  0  0  0  0  0  0  0  0  0  0
    5.9318   -1.0598   24.4932 C   0  0  0  0  0  0  0  0  0  0  0  0
    4.6660   -1.0345   25.0304 N   0  0  0  0  0  0  0  0  0  0  0  0
   -0.0428    0.4279   28.6739 C   0  0  0  0  0  0  0  0  0  0  0  0
   -0.9248    0.7896   27.5026 C   0  0  0  0  0  0  0  0  0  0  0  0
   -1.3568    1.1456   28.8956 C   0  0  0  0  0  0  0  0  0  0  0  0
   -1.9116   -1.5638   29.4665 H   0  0  0  0  0  0  0  0  0  0  0  0
   -0.7995   -2.9441   29.3543 H   0  0  0  0  0  0  0  0  0  0  0  0
   -1.2705   -2.0624   27.9113 H   0  0  0  0  0  0  0  0  0  0  0  0
    0.9682   -1.9849   30.9446 H   0  0  0  0  0  0  0  0  0  0  0  0
    1.4029   -0.2672   30.8488 H   0  0  0  0  0  0  0  0  0  0  0  0
   -0.7575    0.3026   31.6983 H   0  0  0  0  0  0  0  0  0  0  0  0
   -3.0893   -2.4377   34.1403 H   0  0  0  0  0  0  0  0  0  0  0  0
   -5.0448   -1.3227   35.1964 H   0  0  0  0  0  0  0  0  0  0  0  0
   -4.5726    2.0299   32.8574 H   0  0  0  0  0  0  0  0  0  0  0  0
   -2.6260    1.0874   31.6793 H   0  0  0  0  0  0  0  0  0  0  0  0
    1.3980   -2.5640   28.1188 H   0  0  0  0  0  0  0  0  0  0  0  0
    3.7948   -2.6803   27.8883 H   0  0  0  0  0  0  0  0  0  0  0  0
    2.8185   -2.6124   26.4221 H   0  0  0  0  0  0  0  0  0  0  0  0
    7.7713   -1.8575   25.4217 H   0  0  0  0  0  0  0  0  0  0  0  0
    6.1351   -0.6558   23.5132 H   0  0  0  0  0  0  0  0  0  0  0  0
    3.8432   -0.6956   24.5431 H   0  0  0  0  0  0  0  0  0  0  0  0
    0.8426    1.0445   28.8184 H   0  0  0  0  0  0  0  0  0  0  0  0
   -0.5856    1.5930   26.8584 H   0  0  0  0  0  0  0  0  0  0  0  0
   -1.4891    0.0204   26.9948 H   0  0  0  0  0  0  0  0  0  0  0  0
   -1.3182    2.1918   29.1798 H   0  0  0  0  0  0  0  0  0  0  0  0
   -2.2067    0.6132   29.2996 H   0  0  0  0  0  0  0  0  0  0  0  0
  1  2  1  0
  2  3  1  0
  3  4  1  0
  4  5  1  0
  5  6  2  0
  5  7  1  0
  7  8  2  0
  8  9  1  0
  9 10  2  0
 10 11  1  0
 11 12  2  0
  2 13  1  0
 13 14  1  0
 14 15  2  0
 14 16  1  0
 16 17  1  0
 17 18  2  0
 18 19  1  0
 19 20  2  0
 20 21  1  0
  2 22  1  0
 22 23  1  0
 23 24  1  0
 12  7  1  0
 21 17  1  0
 24 22  1  0
  1 25  1  0
  1 26  1  0
  1 27  1  0
  3 28  1  0
  3 29  1  0
  4 30  1  0
  8 31  1  0
  9 32  1  0
 11 33  1  0
 12 34  1  0
 13 35  1  0
 16 36  1  0
 16 37  1  0
 19 38  1  0
 20 39  1  0
 21 40  1  0
 22 41  1  0
 23 42  1  0
 23 43  1  0
 24 44  1  0
 24 45  1  0
M  END
>  <Energy>  (816) 
60.084815799936599

>  <compound_id>  (816) 
11945

>  <target_id>  (816) 
1

>  <reference_id>  (816) 
80

>  <inspiration_ids>  (816) 
[80, 7]

>  <energy_score>  (816) 
-33.72986557523501

>  <distance_score>  (816) 
12.296323279688478

>  <path>  (816) 
/opt/xchem-fragalysis-2/maxwin/BulkDock/SCRATCH/511020/C11945-P80/C11945-P80.minimised.mol

>  <scratch_subdir>  (816) 
/opt/xchem-fragalysis-2/maxwin/BulkDock/SCRATCH/511020/C11945-P80

>  <fragmenstein_runtime>  (816) 
19.844792366027832

>  <fragmenstein_outcome>  (816) 
too moved

>  <fragmenstein_mode>  (816) 
expansion

>  <fragmenstein_error>  (816) 


$$$$
C11945-P7
     RDKit          3D

 45 47  0  0  0  0  0  0  0  0999 V2000
   -0.8457   -2.5788   29.3528 C   0  0  0  0  0  0  0  0  0  0  0  0
    0.3472   -1.8242   29.9959 C   0  0  0  0  0  0  0  0  0  0  0  0
   -0.2105   -0.4940   30.6428 C   0  0  0  0  0  0  0  0  0  0  0  0
   -1.4900   -0.5439   31.3426 N   0  0  0  0  0  0  0  0  0  0  0  0
   -1.8272   -1.0161   32.6527 C   0  0  0  0  0  0  0  0  0  0  0  0
   -1.1616   -1.5635   33.4804 O   0  0  0  0  0  0  0  0  0  0  0  0
   -3.2238   -0.6681   33.0676 C   0  0  0  0  0  0  0  0  0  0  0  0
   -4.0336   -1.6240   33.6868 C   0  0  0  0  0  0  0  0  0  0  0  0
   -5.2882   -1.2334   34.1265 C   0  0  0  0  0  0  0  0  0  0  0  0
   -5.7705    0.0203   34.0038 N   0  0  0  0  0  0  0  0  0  0  0  0
   -4.9548    0.9254   33.4179 C   0  0  0  0  0  0  0  0  0  0  0  0
   -3.6867    0.6404   32.9409 C   0  0  0  0  0  0  0  0  0  0  0  0
    1.4113   -1.4241   29.0075 N   0  0  0  0  0  0  0  0  0  0  0  0
    2.0781   -2.1907   27.9493 C   0  0  0  0  0  0  0  0  0  0  0  0
    1.8855   -3.3040   27.5560 O   0  0  0  0  0  0  0  0  0  0  0  0
    3.1811   -1.2802   27.3006 C   0  0  0  0  0  0  0  0  0  0  0  0
    4.1634   -1.8841   26.2987 C   0  0  0  0  0  0  0  0  0  0  0  0
    5.4883   -1.8558   26.3865 N   0  0  0  0  0  0  0  0  0  0  0  0
    5.9757   -2.3483   25.1960 C   0  0  0  0  0  0  0  0  0  0  0  0
    4.9445   -2.6784   24.3566 C   0  0  0  0  0  0  0  0  0  0  0  0
    3.8048   -2.3721   25.0588 N   0  0  0  0  0  0  0  0  0  0  0  0
    0.9380   -2.6907   31.1051 C   0  0  0  0  0  0  0  0  0  0  0  0
    1.9744   -3.7718   30.9004 C   0  0  0  0  0  0  0  0  0  0  0  0
    2.3488   -2.5025   31.6164 C   0  0  0  0  0  0  0  0  0  0  0  0
   -1.3286   -1.9610   28.5880 H   0  0  0  0  0  0  0  0  0  0  0  0
   -1.5963   -2.8725   30.0936 H   0  0  0  0  0  0  0  0  0  0  0  0
   -0.5019   -3.4977   28.8651 H   0  0  0  0  0  0  0  0  0  0  0  0
   -0.3463    0.2562   29.8538 H   0  0  0  0  0  0  0  0  0  0  0  0
    0.5254   -0.0915   31.3493 H   0  0  0  0  0  0  0  0  0  0  0  0
   -2.2868   -0.0548   30.9528 H   0  0  0  0  0  0  0  0  0  0  0  0
   -3.6861   -2.6428   33.8319 H   0  0  0  0  0  0  0  0  0  0  0  0
   -5.9538   -1.9371   34.6116 H   0  0  0  0  0  0  0  0  0  0  0  0
   -5.3535    1.9315   33.3482 H   0  0  0  0  0  0  0  0  0  0  0  0
   -3.0737    1.4305   32.5237 H   0  0  0  0  0  0  0  0  0  0  0  0
    1.7784   -0.4806   29.0150 H   0  0  0  0  0  0  0  0  0  0  0  0
    2.6694   -0.4438   26.8114 H   0  0  0  0  0  0  0  0  0  0  0  0
    3.7790   -0.8642   28.1222 H   0  0  0  0  0  0  0  0  0  0  0  0
    7.0391   -2.4295   25.0161 H   0  0  0  0  0  0  0  0  0  0  0  0
    4.9042   -3.0714   23.3527 H   0  0  0  0  0  0  0  0  0  0  0  0
    2.8492   -2.4609   24.7254 H   0  0  0  0  0  0  0  0  0  0  0  0
    0.1831   -2.9234   31.8521 H   0  0  0  0  0  0  0  0  0  0  0  0
    1.8828   -4.6761   31.4930 H   0  0  0  0  0  0  0  0  0  0  0  0
    2.3997   -3.9492   29.9229 H   0  0  0  0  0  0  0  0  0  0  0  0
    2.5025   -2.5510   32.6893 H   0  0  0  0  0  0  0  0  0  0  0  0
    3.0215   -1.8223   31.1092 H   0  0  0  0  0  0  0  0  0  0  0  0
  1  2  1  0
  2  3  1  0
  3  4  1  0
  4  5  1  0
  5  6  2  0
  5  7  1  0
  7  8  2  0
  8  9  1  0
  9 10  2  0
 10 11  1  0
 11 12  2  0
  2 13  1  0
 13 14  1  0
 14 15  2  0
 14 16  1  0
 16 17  1  0
 17 18  2  0
 18 19  1  0
 19 20  2  0
 20 21  1  0
  2 22  1  0
 22 23  1  0
 23 24  1  0
 12  7  1  0
 21 17  1  0
 24 22  1  0
  1 25  1  0
  1 26  1  0
  1 27  1  0
  3 28  1  0
  3 29  1  0
  4 30  1  0
  8 31  1  0
  9 32  1  0
 11 33  1  0
 12 34  1  0
 13 35  1  0
 16 36  1  0
 16 37  1  0
 19 38  1  0
 20 39  1  0
 21 40  1  0
 22 41  1  0
 23 42  1  0
 23 43  1  0
 24 44  1  0
 24 45  1  0
M  END
>  <Energy>  (817) 
58.370477986340155

>  <compound_id>  (817) 
11945

>  <target_id>  (817) 
1

>  <reference_id>  (817) 
7

>  <inspiration_ids>  (817) 
[80, 7]

>  <energy_score>  (817) 
-35.44420338883083

>  <distance_score>  (817) 
12.089950257222227

>  <path>  (817) 
/opt/xchem-fragalysis-2/maxwin/BulkDock/SCRATCH/511020/C11945-P7/C11945-P7.minimised.mol

>  <scratch_subdir>  (817) 
/opt/xchem-fragalysis-2/maxwin/BulkDock/SCRATCH/511020/C11945-P7

>  <fragmenstein_runtime>  (817) 
14.565248966217041

>  <fragmenstein_outcome>  (817) 
too moved

>  <fragmenstein_mode>  (817) 
expansion

>  <fragmenstein_error>  (817) 


$$$$
C10594-P80
     RDKit          3D

 36 37  0  0  0  0  0  0  0  0999 V2000
    5.2941   -2.8952   25.2798 C   0  0  0  0  0  0  0  0  0  0  0  0
    4.2691   -2.1446   24.3396 C   0  0  0  0  0  0  0  0  0  0  0  0
    3.7069   -1.1094   25.5259 C   0  0  0  0  0  0  0  0  0  0  0  0
    2.6865   -1.4887   26.5239 N   0  0  0  0  0  0  0  0  0  0  0  0
    2.3310   -0.8875   27.7935 C   0  0  0  0  0  0  0  0  0  0  0  0
    2.8298    0.0222   28.3928 O   0  0  0  0  0  0  0  0  0  0  0  0
    1.0471   -1.4394   28.4212 C   0  0  0  0  0  0  0  0  0  0  0  0
    0.3166   -0.8281   29.5078 C   0  0  0  0  0  0  0  0  0  0  0  0
   -0.8484   -1.5443   29.6576 C   0  0  0  0  0  0  0  0  0  0  0  0
   -0.7938   -2.5114   28.7006 N   0  0  0  0  0  0  0  0  0  0  0  0
    0.3730   -2.5330   28.0105 N   0  0  0  0  0  0  0  0  0  0  0  0
    4.9694   -1.2734   23.2248 N   0  0  0  0  0  0  0  0  0  0  0  0
    5.6840   -1.7311   21.6312 C   0  0  0  0  0  0  0  0  0  0  0  0
    5.6449   -2.8469   21.1206 O   0  0  0  0  0  0  0  0  0  0  0  0
    6.8356   -0.5147   20.5131 C   0  0  0  0  0  0  0  0  0  0  0  0
    7.0288   -0.5076   18.7093 C   0  0  0  0  0  0  0  0  0  0  0  0
    6.1484   -1.0098   17.6850 N   0  0  0  0  0  0  0  0  0  0  0  0
    6.8287   -0.8717   16.3140 C   0  0  0  0  0  0  0  0  0  0  0  0
    8.0694   -0.2993   16.4461 C   0  0  0  0  0  0  0  0  0  0  0  0
    8.0897    0.1640   17.7690 N   0  0  0  0  0  0  0  0  0  0  0  0
    6.0903   -3.4825   24.8206 H   0  0  0  0  0  0  0  0  0  0  0  0
    5.8662   -2.1954   25.9009 H   0  0  0  0  0  0  0  0  0  0  0  0
    4.7438   -3.5579   25.9581 H   0  0  0  0  0  0  0  0  0  0  0  0
    3.4597   -2.7303   23.9185 H   0  0  0  0  0  0  0  0  0  0  0  0
    4.5529   -0.7176   26.1068 H   0  0  0  0  0  0  0  0  0  0  0  0
    3.3224   -0.1873   25.1024 H   0  0  0  0  0  0  0  0  0  0  0  0
    1.9879   -2.1902   26.2812 H   0  0  0  0  0  0  0  0  0  0  0  0
    0.6155    0.0580   30.0516 H   0  0  0  0  0  0  0  0  0  0  0  0
   -1.7022   -1.4272   30.3079 H   0  0  0  0  0  0  0  0  0  0  0  0
   -1.5186   -3.1782   28.4371 H   0  0  0  0  0  0  0  0  0  0  0  0
    5.0665   -0.2640   23.3680 H   0  0  0  0  0  0  0  0  0  0  0  0
    7.5277   -1.2839   20.4705 H   0  0  0  0  0  0  0  0  0  0  0  0
    7.3695    0.3923   20.7302 H   0  0  0  0  0  0  0  0  0  0  0  0
    6.3310   -1.2699   15.4379 H   0  0  0  0  0  0  0  0  0  0  0  0
    8.8152   -0.0015   15.7223 H   0  0  0  0  0  0  0  0  0  0  0  0
    8.0469    1.1642   17.8303 H   0  0  0  0  0  0  0  0  0  0  0  0
  1  2  1  0
  2  3  1  0
  3  4  1  0
  4  5  1  0
  5  6  2  0
  5  7  1  0
  7  8  1  0
  8  9  2  0
  9 10  1  0
 10 11  1  0
  2 12  1  0
 12 13  1  0
 13 14  2  0
 13 15  1  0
 15 16  1  0
 16 17  2  0
 17 18  1  0
 18 19  2  0
 19 20  1  0
 11  7  2  0
 20 16  1  0
  1 21  1  0
  1 22  1  0
  1 23  1  0
  2 24  1  0
  3 25  1  0
  3 26  1  0
  4 27  1  0
  8 28  1  0
  9 29  1  0
 10 30  1  0
 12 31  1  0
 15 32  1  0
 15 33  1  0
 18 34  1  0
 19 35  1  0
 20 36  1  0
M  END
>  <Energy>  (818) 
300.4147158867782

>  <compound_id>  (818) 
10594

>  <target_id>  (818) 
1

>  <reference_id>  (818) 
80

>  <inspiration_ids>  (818) 
[80, 7]

>  <energy_score>  (818) 
216.24844843930322

>  <distance_score>  (818) 
11.25109171156216

>  <path>  (818) 
/opt/xchem-fragalysis-2/maxwin/BulkDock/SCRATCH/511020/C10594-P80/C10594-P80.minimised.mol

>  <scratch_subdir>  (818) 
/opt/xchem-fragalysis-2/maxwin/BulkDock/SCRATCH/511020/C10594-P80

>  <fragmenstein_runtime>  (818) 
10.54418420791626

>  <fragmenstein_outcome>  (818) 
too moved

>  <fragmenstein_mode>  (818) 
expansion

>  <fragmenstein_error>  (818) 


$$$$
C10594-P7
     RDKit          3D

 36 37  0  0  0  0  0  0  0  0999 V2000
    1.8484    4.5932   20.6934 C   0  0  0  0  0  0  0  0  0  0  0  0
    1.5134    3.5627   21.7733 C   0  0  0  0  0  0  0  0  0  0  0  0
    1.2211    4.2811   23.1257 C   0  0  0  0  0  0  0  0  0  0  0  0
    0.1601    3.7031   23.9408 N   0  0  0  0  0  0  0  0  0  0  0  0
   -1.2597    3.8329   23.8592 C   0  0  0  0  0  0  0  0  0  0  0  0
   -1.9471    4.3855   23.0528 O   0  0  0  0  0  0  0  0  0  0  0  0
   -1.9569    3.2071   25.0344 C   0  0  0  0  0  0  0  0  0  0  0  0
   -3.3354    3.3674   25.3457 C   0  0  0  0  0  0  0  0  0  0  0  0
   -3.5758    2.5842   26.4412 C   0  0  0  0  0  0  0  0  0  0  0  0
   -2.3743    2.0648   26.7952 N   0  0  0  0  0  0  0  0  0  0  0  0
   -1.3844    2.3575   25.9170 N   0  0  0  0  0  0  0  0  0  0  0  0
    2.5999    2.5797   21.8241 N   0  0  0  0  0  0  0  0  0  0  0  0
    3.3389    2.0544   22.9258 C   0  0  0  0  0  0  0  0  0  0  0  0
    3.2056    2.2254   24.1116 O   0  0  0  0  0  0  0  0  0  0  0  0
    4.6224    0.8231   22.4236 C   0  0  0  0  0  0  0  0  0  0  0  0
    6.2532    0.9105   21.4964 C   0  0  0  0  0  0  0  0  0  0  0  0
    6.7245   -0.1546   20.6167 N   0  0  0  0  0  0  0  0  0  0  0  0
    7.2550    0.3314   19.4629 C   0  0  0  0  0  0  0  0  0  0  0  0
    7.5555    1.8523   19.6074 C   0  0  0  0  0  0  0  0  0  0  0  0
    7.2879    2.1248   21.0127 N   0  0  0  0  0  0  0  0  0  0  0  0
    1.0298    5.3087   20.5642 H   0  0  0  0  0  0  0  0  0  0  0  0
    2.7572    5.1497   20.9480 H   0  0  0  0  0  0  0  0  0  0  0  0
    2.0193    4.1045   19.7278 H   0  0  0  0  0  0  0  0  0  0  0  0
    0.6158    3.0267   21.4547 H   0  0  0  0  0  0  0  0  0  0  0  0
    2.1135    4.3877   23.7478 H   0  0  0  0  0  0  0  0  0  0  0  0
    0.8679    5.2971   22.9106 H   0  0  0  0  0  0  0  0  0  0  0  0
    0.4005    3.2331   24.8140 H   0  0  0  0  0  0  0  0  0  0  0  0
   -4.0469    3.9570   24.7852 H   0  0  0  0  0  0  0  0  0  0  0  0
   -4.4851    2.3961   26.9810 H   0  0  0  0  0  0  0  0  0  0  0  0
   -2.1540    1.4726   27.5895 H   0  0  0  0  0  0  0  0  0  0  0  0
    3.0441    2.2881   20.9646 H   0  0  0  0  0  0  0  0  0  0  0  0
    4.7683    0.3372   23.4120 H   0  0  0  0  0  0  0  0  0  0  0  0
    4.1740    0.2722   21.6660 H   0  0  0  0  0  0  0  0  0  0  0  0
    7.3904   -0.2385   18.5732 H   0  0  0  0  0  0  0  0  0  0  0  0
    7.7902    2.6214   18.8731 H   0  0  0  0  0  0  0  0  0  0  0  0
    7.0658    3.0684   21.2920 H   0  0  0  0  0  0  0  0  0  0  0  0
  1  2  1  0
  2  3  1  0
  3  4  1  0
  4  5  1  0
  5  6  2  0
  5  7  1  0
  7  8  1  0
  8  9  2  0
  9 10  1  0
 10 11  1  0
  2 12  1  0
 12 13  1  0
 13 14  2  0
 13 15  1  0
 15 16  1  0
 16 17  2  0
 17 18  1  0
 18 19  2  0
 19 20  1  0
 11  7  2  0
 20 16  1  0
  1 21  1  0
  1 22  1  0
  1 23  1  0
  2 24  1  0
  3 25  1  0
  3 26  1  0
  4 27  1  0
  8 28  1  0
  9 29  1  0
 10 30  1  0
 12 31  1  0
 15 32  1  0
 15 33  1  0
 18 34  1  0
 19 35  1  0
 20 36  1  0
M  END
>  <Energy>  (819) 
193.37253147605645

>  <compound_id>  (819) 
10594

>  <target_id>  (819) 
1

>  <reference_id>  (819) 
7

>  <inspiration_ids>  (819) 
[80, 7]

>  <energy_score>  (819) 
109.20626402858795

>  <distance_score>  (819) 
12.238294982366778

>  <path>  (819) 
/opt/xchem-fragalysis-2/maxwin/BulkDock/SCRATCH/511020/C10594-P7/C10594-P7.minimised.mol

>  <scratch_subdir>  (819) 
/opt/xchem-fragalysis-2/maxwin/BulkDock/SCRATCH/511020/C10594-P7

>  <fragmenstein_runtime>  (819) 
11.698524713516235

>  <fragmenstein_outcome>  (819) 
too moved

>  <fragmenstein_mode>  (819) 
expansion

>  <fragmenstein_error>  (819) 


$$$$
C10595-P80
     RDKit          3D

 42 43  0  0  0  0  0  0  0  0999 V2000
    8.4653    0.0951   16.3853 C   0  0  0  0  0  0  0  0  0  0  0  0
    7.0988    0.1879   17.0640 C   0  0  0  0  0  0  0  0  0  0  0  0
    7.1409    0.3376   18.5190 C   0  0  0  0  0  0  0  0  0  0  0  0
    7.3647    1.5242   19.1278 C   0  0  0  0  0  0  0  0  0  0  0  0
    7.5499    1.1882   20.6871 N   0  0  0  0  0  0  0  0  0  0  0  0
    6.6476   -0.0475   20.9299 C   0  0  0  0  0  0  0  0  0  0  0  0
    4.9098    0.0524   22.0752 C   0  0  0  0  0  0  0  0  0  0  0  0
    4.5879   -0.0924   24.1340 C   0  0  0  0  0  0  0  0  0  0  0  0
    3.8892    0.8462   24.5178 O   0  0  0  0  0  0  0  0  0  0  0  0
    5.0638   -1.2024   24.8338 N   0  0  0  0  0  0  0  0  0  0  0  0
    4.8265   -1.6515   26.2188 C   0  0  0  0  0  0  0  0  0  0  0  0
    3.6140   -2.5290   26.1715 C   0  0  0  0  0  0  0  0  0  0  0  0
    4.4542   -0.4740   27.2643 C   0  0  0  0  0  0  0  0  0  0  0  0
    3.1028   -0.4724   27.8920 N   0  0  0  0  0  0  0  0  0  0  0  0
    2.6899   -0.7313   29.2495 C   0  0  0  0  0  0  0  0  0  0  0  0
    3.3368   -0.9368   30.2366 O   0  0  0  0  0  0  0  0  0  0  0  0
    1.1766   -0.7038   29.4367 C   0  0  0  0  0  0  0  0  0  0  0  0
    0.4724   -0.8436   30.6875 C   0  0  0  0  0  0  0  0  0  0  0  0
   -0.8702   -0.8065   30.3918 C   0  0  0  0  0  0  0  0  0  0  0  0
   -0.9298   -0.6614   29.0392 N   0  0  0  0  0  0  0  0  0  0  0  0
    0.2776   -0.5522   28.4405 N   0  0  0  0  0  0  0  0  0  0  0  0
    7.1228   -0.5781   19.5997 N   0  0  0  0  0  0  0  0  0  0  0  0
    8.4695    0.4989   15.3789 H   0  0  0  0  0  0  0  0  0  0  0  0
    8.7834   -0.9410   16.2558 H   0  0  0  0  0  0  0  0  0  0  0  0
    9.2327    0.6555   16.9210 H   0  0  0  0  0  0  0  0  0  0  0  0
    6.3838   -0.5564   16.7089 H   0  0  0  0  0  0  0  0  0  0  0  0
    6.6714    1.1642   16.8122 H   0  0  0  0  0  0  0  0  0  0  0  0
    7.5478    2.5033   18.6942 H   0  0  0  0  0  0  0  0  0  0  0  0
    4.8185   -1.0322   22.0348 H   0  0  0  0  0  0  0  0  0  0  0  0
    4.1664    0.6902   21.6584 H   0  0  0  0  0  0  0  0  0  0  0  0
    5.5310   -1.8074   24.1887 H   0  0  0  0  0  0  0  0  0  0  0  0
    5.7652   -2.0302   26.6060 H   0  0  0  0  0  0  0  0  0  0  0  0
    3.6788   -3.2344   25.3462 H   0  0  0  0  0  0  0  0  0  0  0  0
    2.7424   -1.9128   25.9649 H   0  0  0  0  0  0  0  0  0  0  0  0
    3.4330   -3.0180   27.1292 H   0  0  0  0  0  0  0  0  0  0  0  0
    4.6123    0.5164   26.8320 H   0  0  0  0  0  0  0  0  0  0  0  0
    5.1569   -0.5619   28.1024 H   0  0  0  0  0  0  0  0  0  0  0  0
    2.2797   -0.2609   27.3293 H   0  0  0  0  0  0  0  0  0  0  0  0
    0.9291   -0.9707   31.6597 H   0  0  0  0  0  0  0  0  0  0  0  0
   -1.7581   -0.8875   31.0003 H   0  0  0  0  0  0  0  0  0  0  0  0
   -1.7547   -0.6253   28.4490 H   0  0  0  0  0  0  0  0  0  0  0  0
    6.6690   -1.4553   19.4453 H   0  0  0  0  0  0  0  0  0  0  0  0
  1  2  1  0
  2  3  1  0
  3  4  2  0
  4  5  1  0
  5  6  2  0
  6  7  1  0
  7  8  1  0
  8  9  2  0
  8 10  1  0
 10 11  1  0
 11 12  1  0
 11 13  1  0
 13 14  1  0
 14 15  1  0
 15 16  2  0
 15 17  1  0
 17 18  1  0
 18 19  2  0
 19 20  1  0
 20 21  1  0
  6 22  1  0
 22  3  1  0
 21 17  2  0
  1 23  1  0
  1 24  1  0
  1 25  1  0
  2 26  1  0
  2 27  1  0
  4 28  1  0
  7 29  1  0
  7 30  1  0
 10 31  1  0
 11 32  1  0
 12 33  1  0
 12 34  1  0
 12 35  1  0
 13 36  1  0
 13 37  1  0
 14 38  1  0
 18 39  1  0
 19 40  1  0
 20 41  1  0
 22 42  1  0
M  END
>  <Energy>  (820) 
339.26526734308459

>  <compound_id>  (820) 
10595

>  <target_id>  (820) 
1

>  <reference_id>  (820) 
80

>  <inspiration_ids>  (820) 
[80, 7]

>  <energy_score>  (820) 
258.63813171352786

>  <distance_score>  (820) 
11.452443008405062

>  <path>  (820) 
/opt/xchem-fragalysis-2/maxwin/BulkDock/SCRATCH/511020/C10595-P80/C10595-P80.minimised.mol

>  <scratch_subdir>  (820) 
/opt/xchem-fragalysis-2/maxwin/BulkDock/SCRATCH/511020/C10595-P80

>  <fragmenstein_runtime>  (820) 
13.07519245147705

>  <fragmenstein_outcome>  (820) 
too moved

>  <fragmenstein_mode>  (820) 
expansion

>  <fragmenstein_error>  (820) 


$$$$
C10595-P7
     RDKit          3D

 42 43  0  0  0  0  0  0  0  0999 V2000
   14.2952   -3.8352   19.0820 C   0  0  0  0  0  0  0  0  0  0  0  0
   14.1434   -4.4647   20.4578 C   0  0  0  0  0  0  0  0  0  0  0  0
   12.8091   -5.0676   20.6539 C   0  0  0  0  0  0  0  0  0  0  0  0
   12.3359   -6.2537   21.0422 C   0  0  0  0  0  0  0  0  0  0  0  0
   10.8898   -6.3508   20.7519 N   0  0  0  0  0  0  0  0  0  0  0  0
   10.1140   -5.1673   20.4751 C   0  0  0  0  0  0  0  0  0  0  0  0
    8.1961   -4.4183   21.0438 C   0  0  0  0  0  0  0  0  0  0  0  0
    7.2268   -3.9824   22.8966 C   0  0  0  0  0  0  0  0  0  0  0  0
    7.7221   -4.6196   23.8185 O   0  0  0  0  0  0  0  0  0  0  0  0
    5.8428   -2.6429   23.1963 N   0  0  0  0  0  0  0  0  0  0  0  0
    5.0797   -2.0992   24.6454 C   0  0  0  0  0  0  0  0  0  0  0  0
    3.6320   -2.5178   24.6611 C   0  0  0  0  0  0  0  0  0  0  0  0
    5.4298   -1.4512   26.1113 C   0  0  0  0  0  0  0  0  0  0  0  0
    4.2410   -1.3937   27.0532 N   0  0  0  0  0  0  0  0  0  0  0  0
    4.0485   -1.9465   28.3657 C   0  0  0  0  0  0  0  0  0  0  0  0
    4.8068   -2.5291   29.0876 O   0  0  0  0  0  0  0  0  0  0  0  0
    2.6139   -1.7336   28.8639 C   0  0  0  0  0  0  0  0  0  0  0  0
    2.0541   -2.1786   30.1136 C   0  0  0  0  0  0  0  0  0  0  0  0
    0.7245   -1.8213   30.1051 C   0  0  0  0  0  0  0  0  0  0  0  0
    0.5312   -1.2079   28.9061 N   0  0  0  0  0  0  0  0  0  0  0  0
    1.6535   -1.0848   28.1635 N   0  0  0  0  0  0  0  0  0  0  0  0
   11.6678   -4.3646   20.7621 N   0  0  0  0  0  0  0  0  0  0  0  0
   14.1246   -4.5673   18.2874 H   0  0  0  0  0  0  0  0  0  0  0  0
   15.3047   -3.4300   18.9604 H   0  0  0  0  0  0  0  0  0  0  0  0
   13.5842   -3.0159   18.9366 H   0  0  0  0  0  0  0  0  0  0  0  0
   14.9149   -5.2335   20.5840 H   0  0  0  0  0  0  0  0  0  0  0  0
   14.3237   -3.7052   21.2278 H   0  0  0  0  0  0  0  0  0  0  0  0
   12.8604   -7.1184   21.4334 H   0  0  0  0  0  0  0  0  0  0  0  0
    7.5228   -4.7389   20.2462 H   0  0  0  0  0  0  0  0  0  0  0  0
    8.6124   -3.5000   20.8389 H   0  0  0  0  0  0  0  0  0  0  0  0
    5.5034   -2.2902   22.2831 H   0  0  0  0  0  0  0  0  0  0  0  0
    4.9281   -1.1159   24.2024 H   0  0  0  0  0  0  0  0  0  0  0  0
    3.0256   -1.6884   25.0246 H   0  0  0  0  0  0  0  0  0  0  0  0
    3.4816   -3.3491   25.3270 H   0  0  0  0  0  0  0  0  0  0  0  0
    3.2448   -2.7563   23.6749 H   0  0  0  0  0  0  0  0  0  0  0  0
    5.5908   -0.3815   25.9876 H   0  0  0  0  0  0  0  0  0  0  0  0
    6.3176   -1.8299   26.6207 H   0  0  0  0  0  0  0  0  0  0  0  0
    3.3973   -0.8952   26.7769 H   0  0  0  0  0  0  0  0  0  0  0  0
    2.5854   -2.7126   30.8896 H   0  0  0  0  0  0  0  0  0  0  0  0
   -0.0769   -1.9656   30.8141 H   0  0  0  0  0  0  0  0  0  0  0  0
   -0.3327   -0.8402   28.5219 H   0  0  0  0  0  0  0  0  0  0  0  0
   11.5995   -3.3919   20.5481 H   0  0  0  0  0  0  0  0  0  0  0  0
  1  2  1  0
  2  3  1  0
  3  4  2  0
  4  5  1  0
  5  6  2  0
  6  7  1  0
  7  8  1  0
  8  9  2  0
  8 10  1  0
 10 11  1  0
 11 12  1  0
 11 13  1  0
 13 14  1  0
 14 15  1  0
 15 16  2  0
 15 17  1  0
 17 18  1  0
 18 19  2  0
 19 20  1  0
 20 21  1  0
  6 22  1  0
 22  3  1  0
 21 17  2  0
  1 23  1  0
  1 24  1  0
  1 25  1  0
  2 26  1  0
  2 27  1  0
  4 28  1  0
  7 29  1  0
  7 30  1  0
 10 31  1  0
 11 32  1  0
 12 33  1  0
 12 34  1  0
 12 35  1  0
 13 36  1  0
 13 37  1  0
 14 38  1  0
 18 39  1  0
 19 40  1  0
 20 41  1  0
 22 42  1  0
M  END
>  <Energy>  (821) 
540.56838764205554

>  <compound_id>  (821) 
10595

>  <target_id>  (821) 
1

>  <reference_id>  (821) 
7

>  <inspiration_ids>  (821) 
[80, 7]

>  <energy_score>  (821) 
459.9412520125

>  <distance_score>  (821) 
12.240805501817412

>  <path>  (821) 
/opt/xchem-fragalysis-2/maxwin/BulkDock/SCRATCH/511020/C10595-P7/C10595-P7.minimised.mol

>  <scratch_subdir>  (821) 
/opt/xchem-fragalysis-2/maxwin/BulkDock/SCRATCH/511020/C10595-P7

>  <fragmenstein_runtime>  (821) 
17.63374161720276

>  <fragmenstein_outcome>  (821) 
too moved

>  <fragmenstein_mode>  (821) 
expansion

>  <fragmenstein_error>  (821) 


$$$$
C46834-P80
     RDKit          3D

 46 48  0  0  0  0  0  0  0  0999 V2000
    4.1239   -1.5905   26.9064 C   0  0  0  0  0  0  0  0  0  0  0  0
    4.2686   -0.2956   26.1096 C   0  0  0  0  0  0  0  0  0  0  0  0
    3.1707    0.7431   26.5546 C   0  0  0  0  0  0  0  0  0  0  0  0
    2.0510    0.2862   27.4222 N   0  0  0  0  0  0  0  0  0  0  0  0
    1.5523    0.8040   28.6790 C   0  0  0  0  0  0  0  0  0  0  0  0
    1.9646    1.6842   29.3790 O   0  0  0  0  0  0  0  0  0  0  0  0
    0.2718    0.1183   29.1309 C   0  0  0  0  0  0  0  0  0  0  0  0
   -0.4423   -0.7318   28.3433 N   0  0  0  0  0  0  0  0  0  0  0  0
   -1.5120   -1.1259   29.0949 N   0  0  0  0  0  0  0  0  0  0  0  0
   -1.5060   -0.5505   30.3136 C   0  0  0  0  0  0  0  0  0  0  0  0
   -0.3994    0.2430   30.3797 C   0  0  0  0  0  0  0  0  0  0  0  0
   -0.2854    0.8882   31.7035 C   0  0  0  0  0  0  0  0  0  0  0  0
   -1.3454    0.0943   32.5445 C   0  0  0  0  0  0  0  0  0  0  0  0
   -2.3207   -0.5959   31.5313 C   0  0  0  0  0  0  0  0  0  0  0  0
    4.5070   -0.5556   24.6376 N   0  0  0  0  0  0  0  0  0  0  0  0
    5.1961   -1.6261   23.9662 C   0  0  0  0  0  0  0  0  0  0  0  0
    5.6719   -2.5984   24.4125 O   0  0  0  0  0  0  0  0  0  0  0  0
    5.4139   -1.6143   22.0531 C   0  0  0  0  0  0  0  0  0  0  0  0
    6.8467   -1.0981   20.8047 C   0  0  0  0  0  0  0  0  0  0  0  0
    7.2659    0.1606   20.6727 N   0  0  0  0  0  0  0  0  0  0  0  0
    7.3208    0.3411   19.3942 C   0  0  0  0  0  0  0  0  0  0  0  0
    8.1138   -0.7247   19.1903 C   0  0  0  0  0  0  0  0  0  0  0  0
    6.9421   -1.2038   19.3109 N   0  0  0  0  0  0  0  0  0  0  0  0
    5.8261   -1.2676   18.0285 C   0  0  0  0  0  0  0  0  0  0  0  0
    3.3814   -2.2596   26.4627 H   0  0  0  0  0  0  0  0  0  0  0  0
    3.8551   -1.4062   27.9516 H   0  0  0  0  0  0  0  0  0  0  0  0
    5.0836   -2.1005   26.9511 H   0  0  0  0  0  0  0  0  0  0  0  0
    5.2183    0.1504   26.4313 H   0  0  0  0  0  0  0  0  0  0  0  0
    2.7600    1.2781   25.6951 H   0  0  0  0  0  0  0  0  0  0  0  0
    3.6802    1.5144   27.1472 H   0  0  0  0  0  0  0  0  0  0  0  0
    1.3973   -0.4127   27.0681 H   0  0  0  0  0  0  0  0  0  0  0  0
   -2.1618   -1.7945   28.6867 H   0  0  0  0  0  0  0  0  0  0  0  0
   -0.5420    1.9483   31.6542 H   0  0  0  0  0  0  0  0  0  0  0  0
    0.7129    0.7823   32.1374 H   0  0  0  0  0  0  0  0  0  0  0  0
   -1.8745    0.7385   33.2539 H   0  0  0  0  0  0  0  0  0  0  0  0
   -0.8292   -0.6810   33.1262 H   0  0  0  0  0  0  0  0  0  0  0  0
   -3.2245    0.0078   31.4264 H   0  0  0  0  0  0  0  0  0  0  0  0
   -2.5802   -1.6082   31.8501 H   0  0  0  0  0  0  0  0  0  0  0  0
    4.2959    0.1760   23.9596 H   0  0  0  0  0  0  0  0  0  0  0  0
    4.7658   -0.7564   21.9086 H   0  0  0  0  0  0  0  0  0  0  0  0
    5.4184   -2.6387   21.6766 H   0  0  0  0  0  0  0  0  0  0  0  0
    7.3812    1.3623   18.9855 H   0  0  0  0  0  0  0  0  0  0  0  0
    8.7512   -1.1609   19.9213 H   0  0  0  0  0  0  0  0  0  0  0  0
    4.8048   -0.9446   18.0834 H   0  0  0  0  0  0  0  0  0  0  0  0
    6.3173   -1.0253   17.0737 H   0  0  0  0  0  0  0  0  0  0  0  0
    5.3140   -2.1821   18.2869 H   0  0  0  0  0  0  0  0  0  0  0  0
  1  2  1  0
  2  3  1  0
  3  4  1  0
  4  5  1  0
  5  6  2  0
  5  7  1  0
  7  8  2  0
  8  9  1  0
  9 10  1  0
 10 11  2  0
 11 12  1  0
 12 13  1  0
 13 14  1  0
  2 15  1  0
 15 16  1  0
 16 17  2  0
 16 18  1  0
 18 19  1  0
 19 20  2  0
 20 21  1  0
 21 22  2  0
 22 23  1  0
 23 24  1  0
 11  7  1  0
 23 19  1  0
 14 10  1  0
  1 25  1  0
  1 26  1  0
  1 27  1  0
  2 28  1  0
  3 29  1  0
  3 30  1  0
  4 31  1  0
  9 32  1  0
 12 33  1  0
 12 34  1  0
 13 35  1  0
 13 36  1  0
 14 37  1  0
 14 38  1  0
 15 39  1  0
 18 40  1  0
 18 41  1  0
 21 42  1  0
 22 43  1  0
 24 44  1  0
 24 45  1  0
 24 46  1  0
M  END
>  <Energy>  (822) 
404.00695558526184

>  <compound_id>  (822) 
46834

>  <target_id>  (822) 
1

>  <reference_id>  (822) 
80

>  <inspiration_ids>  (822) 
[80, 7]

>  <energy_score>  (822) 
307.47670427363187

>  <distance_score>  (822) 
10.943753664443078

>  <path>  (822) 
/opt/xchem-fragalysis-2/maxwin/BulkDock/SCRATCH/511020/C46834-P80/C46834-P80.minimised.mol

>  <scratch_subdir>  (822) 
/opt/xchem-fragalysis-2/maxwin/BulkDock/SCRATCH/511020/C46834-P80

>  <fragmenstein_runtime>  (822) 
14.812072515487671

>  <fragmenstein_outcome>  (822) 
too moved

>  <fragmenstein_mode>  (822) 
expansion

>  <fragmenstein_error>  (822) 


$$$$
C46834-P7
     RDKit          3D

 46 48  0  0  0  0  0  0  0  0999 V2000
   -1.0358    0.2734   29.4803 C   0  0  0  0  0  0  0  0  0  0  0  0
   -0.4894   -0.8277   30.3848 C   0  0  0  0  0  0  0  0  0  0  0  0
   -0.5867   -0.4392   31.8834 C   0  0  0  0  0  0  0  0  0  0  0  0
   -1.9025   -0.6794   32.4740 N   0  0  0  0  0  0  0  0  0  0  0  0
   -2.9069    0.2326   32.9337 C   0  0  0  0  0  0  0  0  0  0  0  0
   -2.9611    1.4250   32.8806 O   0  0  0  0  0  0  0  0  0  0  0  0
   -4.0579   -0.4984   33.5414 C   0  0  0  0  0  0  0  0  0  0  0  0
   -4.0457   -1.8494   33.6973 N   0  0  0  0  0  0  0  0  0  0  0  0
   -5.2001   -2.1347   34.3451 N   0  0  0  0  0  0  0  0  0  0  0  0
   -5.9664   -1.0448   34.5237 C   0  0  0  0  0  0  0  0  0  0  0  0
   -5.2780    0.0212   34.0326 C   0  0  0  0  0  0  0  0  0  0  0  0
   -6.0353    1.2753   34.2092 C   0  0  0  0  0  0  0  0  0  0  0  0
   -7.2025    0.8219   35.1595 C   0  0  0  0  0  0  0  0  0  0  0  0
   -7.2736   -0.7444   35.1142 C   0  0  0  0  0  0  0  0  0  0  0  0
    0.8587   -1.2429   29.9702 N   0  0  0  0  0  0  0  0  0  0  0  0
    2.0633   -0.4620   29.7143 C   0  0  0  0  0  0  0  0  0  0  0  0
    2.2787    0.7081   29.8538 O   0  0  0  0  0  0  0  0  0  0  0  0
    3.1932   -1.4141   29.2605 C   0  0  0  0  0  0  0  0  0  0  0  0
    4.1608   -0.9560   28.1933 C   0  0  0  0  0  0  0  0  0  0  0  0
    5.4051   -1.4071   28.1125 N   0  0  0  0  0  0  0  0  0  0  0  0
    5.8156   -1.1517   26.8342 C   0  0  0  0  0  0  0  0  0  0  0  0
    4.8311   -0.5032   26.1358 C   0  0  0  0  0  0  0  0  0  0  0  0
    3.8748   -0.2206   27.0666 N   0  0  0  0  0  0  0  0  0  0  0  0
    2.8266    0.7496   26.9019 C   0  0  0  0  0  0  0  0  0  0  0  0
   -0.4569    1.1975   29.5798 H   0  0  0  0  0  0  0  0  0  0  0  0
   -2.0788    0.4987   29.7246 H   0  0  0  0  0  0  0  0  0  0  0  0
   -0.9935   -0.0314   28.4288 H   0  0  0  0  0  0  0  0  0  0  0  0
   -1.1056   -1.7223   30.2268 H   0  0  0  0  0  0  0  0  0  0  0  0
   -0.3224    0.6131   32.0335 H   0  0  0  0  0  0  0  0  0  0  0  0
    0.1126   -1.0468   32.4685 H   0  0  0  0  0  0  0  0  0  0  0  0
   -2.2320   -1.6340   32.6150 H   0  0  0  0  0  0  0  0  0  0  0  0
   -5.3621   -3.0965   34.6207 H   0  0  0  0  0  0  0  0  0  0  0  0
   -5.4412    2.0711   34.6664 H   0  0  0  0  0  0  0  0  0  0  0  0
   -6.4372    1.6232   33.2520 H   0  0  0  0  0  0  0  0  0  0  0  0
   -8.1563    1.2845   34.8865 H   0  0  0  0  0  0  0  0  0  0  0  0
   -6.9678    1.1378   36.1845 H   0  0  0  0  0  0  0  0  0  0  0  0
   -7.4099   -1.1607   36.1150 H   0  0  0  0  0  0  0  0  0  0  0  0
   -8.0835   -1.0791   34.4615 H   0  0  0  0  0  0  0  0  0  0  0  0
    1.0609   -2.2239   29.8172 H   0  0  0  0  0  0  0  0  0  0  0  0
    3.7640   -1.6619   30.1646 H   0  0  0  0  0  0  0  0  0  0  0  0
    2.7684   -2.3550   28.8895 H   0  0  0  0  0  0  0  0  0  0  0  0
    6.7754   -1.4990   26.4809 H   0  0  0  0  0  0  0  0  0  0  0  0
    4.7460   -0.1955   25.1047 H   0  0  0  0  0  0  0  0  0  0  0  0
    3.0107    1.5757   27.5928 H   0  0  0  0  0  0  0  0  0  0  0  0
    1.8649    0.2776   27.1056 H   0  0  0  0  0  0  0  0  0  0  0  0
    2.8553    1.1456   25.8838 H   0  0  0  0  0  0  0  0  0  0  0  0
  1  2  1  0
  2  3  1  0
  3  4  1  0
  4  5  1  0
  5  6  2  0
  5  7  1  0
  7  8  2  0
  8  9  1  0
  9 10  1  0
 10 11  2  0
 11 12  1  0
 12 13  1  0
 13 14  1  0
  2 15  1  0
 15 16  1  0
 16 17  2  0
 16 18  1  0
 18 19  1  0
 19 20  2  0
 20 21  1  0
 21 22  2  0
 22 23  1  0
 23 24  1  0
 11  7  1  0
 23 19  1  0
 14 10  1  0
  1 25  1  0
  1 26  1  0
  1 27  1  0
  2 28  1  0
  3 29  1  0
  3 30  1  0
  4 31  1  0
  9 32  1  0
 12 33  1  0
 12 34  1  0
 13 35  1  0
 13 36  1  0
 14 37  1  0
 14 38  1  0
 15 39  1  0
 18 40  1  0
 18 41  1  0
 21 42  1  0
 22 43  1  0
 24 44  1  0
 24 45  1  0
 24 46  1  0
M  END
>  <Energy>  (823) 
82.934053653538228

>  <compound_id>  (823) 
46834

>  <target_id>  (823) 
1

>  <reference_id>  (823) 
7

>  <inspiration_ids>  (823) 
[80, 7]

>  <energy_score>  (823) 
-13.596197658097026

>  <distance_score>  (823) 
10.739197409853977

>  <path>  (823) 
/opt/xchem-fragalysis-2/maxwin/BulkDock/SCRATCH/511020/C46834-P7/C46834-P7.minimised.mol

>  <scratch_subdir>  (823) 
/opt/xchem-fragalysis-2/maxwin/BulkDock/SCRATCH/511020/C46834-P7

>  <fragmenstein_runtime>  (823) 
18.158050775527954

>  <fragmenstein_outcome>  (823) 
too moved

>  <fragmenstein_mode>  (823) 
expansion

>  <fragmenstein_error>  (823) 


$$$$
C10596-P80
     RDKit          3D

 43 45  0  0  0  0  0  0  0  0999 V2000
   -0.4470    3.4051   25.4192 C   0  0  0  0  0  0  0  0  0  0  0  0
    1.0534    3.3487   25.7507 C   0  0  0  0  0  0  0  0  0  0  0  0
    1.3327    2.6291   27.1277 C   0  0  0  0  0  0  0  0  0  0  0  0
    0.4336    1.6165   27.6559 N   0  0  0  0  0  0  0  0  0  0  0  0
   -0.8394    1.7344   28.2862 C   0  0  0  0  0  0  0  0  0  0  0  0
   -1.5300    2.6872   28.4697 O   0  0  0  0  0  0  0  0  0  0  0  0
   -1.3044    0.4493   28.8887 C   0  0  0  0  0  0  0  0  0  0  0  0
   -1.8514    0.2892   30.2036 C   0  0  0  0  0  0  0  0  0  0  0  0
   -2.0445   -1.0598   30.3692 C   0  0  0  0  0  0  0  0  0  0  0  0
   -1.7232   -1.6203   29.1658 N   0  0  0  0  0  0  0  0  0  0  0  0
   -1.2132   -0.7422   28.2796 N   0  0  0  0  0  0  0  0  0  0  0  0
    1.7576    2.7504   24.6052 N   0  0  0  0  0  0  0  0  0  0  0  0
    2.8669    1.8173   24.5526 C   0  0  0  0  0  0  0  0  0  0  0  0
    3.4384    1.2361   25.4295 O   0  0  0  0  0  0  0  0  0  0  0  0
    3.3762    1.7169   23.0195 C   0  0  0  0  0  0  0  0  0  0  0  0
    4.7371    0.3523   22.6542 C   0  0  0  0  0  0  0  0  0  0  0  0
    4.8338   -1.1451   22.8802 N   0  0  0  0  0  0  0  0  0  0  0  0
    5.5866   -1.6313   21.6948 C   0  0  0  0  0  0  0  0  0  0  0  0
    6.3914   -0.4839   21.0082 C   0  0  0  0  0  0  0  0  0  0  0  0
    5.1969    0.3320   21.4523 N   0  0  0  0  0  0  0  0  0  0  0  0
    1.5398    4.8034   25.8942 C   0  0  0  0  0  0  0  0  0  0  0  0
    3.0050    5.1724   25.8266 C   0  0  0  0  0  0  0  0  0  0  0  0
    2.0652    5.6472   24.7511 C   0  0  0  0  0  0  0  0  0  0  0  0
   -0.6202    3.9273   24.4701 H   0  0  0  0  0  0  0  0  0  0  0  0
   -0.8805    2.4074   25.3197 H   0  0  0  0  0  0  0  0  0  0  0  0
   -1.0075    3.9478   26.1877 H   0  0  0  0  0  0  0  0  0  0  0  0
    2.3471    2.2324   27.1933 H   0  0  0  0  0  0  0  0  0  0  0  0
    1.2962    3.4055   27.9049 H   0  0  0  0  0  0  0  0  0  0  0  0
    0.7643    0.6570   27.7537 H   0  0  0  0  0  0  0  0  0  0  0  0
   -2.0091    1.0626   30.9370 H   0  0  0  0  0  0  0  0  0  0  0  0
   -2.4049   -1.6559   31.1946 H   0  0  0  0  0  0  0  0  0  0  0  0
   -1.8066   -2.5915   28.8729 H   0  0  0  0  0  0  0  0  0  0  0  0
    1.5851    3.1113   23.6757 H   0  0  0  0  0  0  0  0  0  0  0  0
    3.6113    2.7790   22.8415 H   0  0  0  0  0  0  0  0  0  0  0  0
    2.6583    1.6519   22.1935 H   0  0  0  0  0  0  0  0  0  0  0  0
    5.6265   -2.6649   21.3415 H   0  0  0  0  0  0  0  0  0  0  0  0
    7.0309   -0.3891   20.1210 H   0  0  0  0  0  0  0  0  0  0  0  0
    4.4321    0.6905   20.9467 H   0  0  0  0  0  0  0  0  0  0  0  0
    0.9496    5.3331   26.6416 H   0  0  0  0  0  0  0  0  0  0  0  0
    3.3734    5.9036   26.5386 H   0  0  0  0  0  0  0  0  0  0  0  0
    3.7332    4.4106   25.5752 H   0  0  0  0  0  0  0  0  0  0  0  0
    1.7987    6.6997   24.7433 H   0  0  0  0  0  0  0  0  0  0  0  0
    2.1809    5.2290   23.7605 H   0  0  0  0  0  0  0  0  0  0  0  0
  1  2  1  0
  2  3  1  0
  3  4  1  0
  4  5  1  0
  5  6  2  0
  5  7  1  0
  7  8  1  0
  8  9  2  0
  9 10  1  0
 10 11  1  0
  2 12  1  0
 12 13  1  0
 13 14  2  0
 13 15  1  0
 15 16  1  0
 16 17  2  0
 17 18  1  0
 18 19  2  0
 19 20  1  0
  2 21  1  0
 21 22  1  0
 22 23  1  0
 11  7  2  0
 20 16  1  0
 23 21  1  0
  1 24  1  0
  1 25  1  0
  1 26  1  0
  3 27  1  0
  3 28  1  0
  4 29  1  0
  8 30  1  0
  9 31  1  0
 10 32  1  0
 12 33  1  0
 15 34  1  0
 15 35  1  0
 18 36  1  0
 19 37  1  0
 20 38  1  0
 21 39  1  0
 22 40  1  0
 22 41  1  0
 23 42  1  0
 23 43  1  0
M  END
>  <Energy>  (824) 
251.75822863203152

>  <compound_id>  (824) 
10596

>  <target_id>  (824) 
1

>  <reference_id>  (824) 
80

>  <inspiration_ids>  (824) 
[80, 7]

>  <energy_score>  (824) 
127.32398798593607

>  <distance_score>  (824) 
11.28972102150846

>  <path>  (824) 
/opt/xchem-fragalysis-2/maxwin/BulkDock/SCRATCH/511020/C10596-P80/C10596-P80.minimised.mol

>  <scratch_subdir>  (824) 
/opt/xchem-fragalysis-2/maxwin/BulkDock/SCRATCH/511020/C10596-P80

>  <fragmenstein_runtime>  (824) 
15.435989618301392

>  <fragmenstein_outcome>  (824) 
too moved

>  <fragmenstein_mode>  (824) 
expansion

>  <fragmenstein_error>  (824) 


$$$$
C10596-P7
     RDKit          3D

 43 45  0  0  0  0  0  0  0  0999 V2000
    2.6809    2.3188   25.0035 C   0  0  0  0  0  0  0  0  0  0  0  0
    2.7082    2.9358   23.5834 C   0  0  0  0  0  0  0  0  0  0  0  0
    1.2568    3.3173   23.0147 C   0  0  0  0  0  0  0  0  0  0  0  0
    0.1222    3.1727   23.9383 N   0  0  0  0  0  0  0  0  0  0  0  0
   -1.1609    3.7980   23.9510 C   0  0  0  0  0  0  0  0  0  0  0  0
   -1.6154    4.6588   23.2594 O   0  0  0  0  0  0  0  0  0  0  0  0
   -2.0149    3.2069   25.0397 C   0  0  0  0  0  0  0  0  0  0  0  0
   -3.3600    3.5454   25.3443 C   0  0  0  0  0  0  0  0  0  0  0  0
   -3.7515    2.6894   26.3418 C   0  0  0  0  0  0  0  0  0  0  0  0
   -2.6457    1.9787   26.6747 N   0  0  0  0  0  0  0  0  0  0  0  0
   -1.6108    2.1794   25.8273 N   0  0  0  0  0  0  0  0  0  0  0  0
    3.5487    2.0891   22.5639 N   0  0  0  0  0  0  0  0  0  0  0  0
    4.5788    0.7840   22.7992 C   0  0  0  0  0  0  0  0  0  0  0  0
    4.8128    0.1560   23.8780 O   0  0  0  0  0  0  0  0  0  0  0  0
    5.6581    0.2427   21.2656 C   0  0  0  0  0  0  0  0  0  0  0  0
    7.2280    0.2944   20.0345 C   0  0  0  0  0  0  0  0  0  0  0  0
    7.4716   -0.4141   18.9126 N   0  0  0  0  0  0  0  0  0  0  0  0
    8.0538    0.3940   17.6793 C   0  0  0  0  0  0  0  0  0  0  0  0
    8.0347    1.7522   17.9464 C   0  0  0  0  0  0  0  0  0  0  0  0
    7.5449    1.8348   19.2910 N   0  0  0  0  0  0  0  0  0  0  0  0
    3.4943    4.2996   23.7712 C   0  0  0  0  0  0  0  0  0  0  0  0
    3.7263    5.2392   22.6095 C   0  0  0  0  0  0  0  0  0  0  0  0
    2.9185    5.7041   23.7917 C   0  0  0  0  0  0  0  0  0  0  0  0
    3.5725    2.5503   25.5911 H   0  0  0  0  0  0  0  0  0  0  0  0
    1.8797    2.7166   25.6299 H   0  0  0  0  0  0  0  0  0  0  0  0
    2.6331    1.2394   24.9787 H   0  0  0  0  0  0  0  0  0  0  0  0
    1.0295    2.7580   22.1016 H   0  0  0  0  0  0  0  0  0  0  0  0
    1.1945    4.3347   22.6287 H   0  0  0  0  0  0  0  0  0  0  0  0
    0.1869    2.5363   24.7287 H   0  0  0  0  0  0  0  0  0  0  0  0
   -3.9554    4.2952   24.8423 H   0  0  0  0  0  0  0  0  0  0  0  0
   -4.6955    2.5700   26.8433 H   0  0  0  0  0  0  0  0  0  0  0  0
   -2.5333    1.2994   27.4204 H   0  0  0  0  0  0  0  0  0  0  0  0
    3.5165    2.3121   21.5753 H   0  0  0  0  0  0  0  0  0  0  0  0
    6.3200    1.0372   21.6689 H   0  0  0  0  0  0  0  0  0  0  0  0
    5.7947   -0.8435   21.4489 H   0  0  0  0  0  0  0  0  0  0  0  0
    8.2697   -0.1213   16.7503 H   0  0  0  0  0  0  0  0  0  0  0  0
    8.2841    2.6410   17.3876 H   0  0  0  0  0  0  0  0  0  0  0  0
    7.5635    2.6434   19.8984 H   0  0  0  0  0  0  0  0  0  0  0  0
    4.2969    4.2067   24.4981 H   0  0  0  0  0  0  0  0  0  0  0  0
    4.7252    5.6414   22.4813 H   0  0  0  0  0  0  0  0  0  0  0  0
    3.2114    5.0575   21.6733 H   0  0  0  0  0  0  0  0  0  0  0  0
    3.3819    6.4252   24.4605 H   0  0  0  0  0  0  0  0  0  0  0  0
    1.8604    5.8927   23.6733 H   0  0  0  0  0  0  0  0  0  0  0  0
  1  2  1  0
  2  3  1  0
  3  4  1  0
  4  5  1  0
  5  6  2  0
  5  7  1  0
  7  8  1  0
  8  9  2  0
  9 10  1  0
 10 11  1  0
  2 12  1  0
 12 13  1  0
 13 14  2  0
 13 15  1  0
 15 16  1  0
 16 17  2  0
 17 18  1  0
 18 19  2  0
 19 20  1  0
  2 21  1  0
 21 22  1  0
 22 23  1  0
 11  7  2  0
 20 16  1  0
 23 21  1  0
  1 24  1  0
  1 25  1  0
  1 26  1  0
  3 27  1  0
  3 28  1  0
  4 29  1  0
  8 30  1  0
  9 31  1  0
 10 32  1  0
 12 33  1  0
 15 34  1  0
 15 35  1  0
 18 36  1  0
 19 37  1  0
 20 38  1  0
 21 39  1  0
 22 40  1  0
 22 41  1  0
 23 42  1  0
 23 43  1  0
M  END
>  <Energy>  (825) 
356.55655602966021

>  <compound_id>  (825) 
10596

>  <target_id>  (825) 
1

>  <reference_id>  (825) 
7

>  <inspiration_ids>  (825) 
[80, 7]

>  <energy_score>  (825) 
232.12231538356423

>  <distance_score>  (825) 
11.844336100163439

>  <path>  (825) 
/opt/xchem-fragalysis-2/maxwin/BulkDock/SCRATCH/511020/C10596-P7/C10596-P7.minimised.mol

>  <scratch_subdir>  (825) 
/opt/xchem-fragalysis-2/maxwin/BulkDock/SCRATCH/511020/C10596-P7

>  <fragmenstein_runtime>  (825) 
16.781158208847046

>  <fragmenstein_outcome>  (825) 
too moved

>  <fragmenstein_mode>  (825) 
expansion

>  <fragmenstein_error>  (825) 


$$$$
C8130-P80
     RDKit          3D

 45 46  0  0  0  0  0  0  0  0999 V2000
    3.8199   -2.1131   27.0365 C   0  0  0  0  0  0  0  0  0  0  0  0
    4.3354   -0.7780   26.5010 C   0  0  0  0  0  0  0  0  0  0  0  0
    3.6897    0.3688   27.3930 C   0  0  0  0  0  0  0  0  0  0  0  0
    2.6354   -0.0126   28.3645 N   0  0  0  0  0  0  0  0  0  0  0  0
    1.2071    0.2623   28.3784 C   0  0  0  0  0  0  0  0  0  0  0  0
    0.5071    0.7999   27.5674 O   0  0  0  0  0  0  0  0  0  0  0  0
    0.5538   -0.2883   29.6982 C   0  0  0  0  0  0  0  0  0  0  0  0
   -0.9609    0.0335   29.8000 C   0  0  0  0  0  0  0  0  0  0  0  0
   -1.7096   -0.4469   31.0403 C   0  0  0  0  0  0  0  0  0  0  0  0
   -2.1178    0.1990   32.1940 C   0  0  0  0  0  0  0  0  0  0  0  0
   -2.9280   -0.7251   32.8876 C   0  0  0  0  0  0  0  0  0  0  0  0
   -3.0109   -1.8983   32.2540 N   0  0  0  0  0  0  0  0  0  0  0  0
   -2.2606   -1.7027   31.1413 N   0  0  0  0  0  0  0  0  0  0  0  0
    3.9572   -0.6809   24.9892 C   0  0  0  0  0  0  0  0  0  0  0  0
    4.9201   -0.5887   23.7349 N   0  0  0  0  0  0  0  0  0  0  0  0
    4.7928    0.4209   22.1593 C   0  0  0  0  0  0  0  0  0  0  0  0
    3.8178    1.0994   21.9048 O   0  0  0  0  0  0  0  0  0  0  0  0
    6.1174    0.6919   20.8511 C   0  0  0  0  0  0  0  0  0  0  0  0
    7.0643   -0.1926   20.2437 C   0  0  0  0  0  0  0  0  0  0  0  0
    7.2485   -0.0820   18.8677 N   0  0  0  0  0  0  0  0  0  0  0  0
    6.5900    0.9778   18.5479 C   0  0  0  0  0  0  0  0  0  0  0  0
    6.2658    1.6486   19.6987 N   0  0  0  0  0  0  0  0  0  0  0  0
    6.3748    3.0947   19.5658 C   0  0  0  0  0  0  0  0  0  0  0  0
    4.0045   -2.8902   26.3081 H   0  0  0  0  0  0  0  0  0  0  0  0
    2.7332   -2.1261   27.1718 H   0  0  0  0  0  0  0  0  0  0  0  0
    4.2951   -2.3730   27.9868 H   0  0  0  0  0  0  0  0  0  0  0  0
    5.4247   -0.7296   26.5918 H   0  0  0  0  0  0  0  0  0  0  0  0
    3.2957    1.1871   26.7827 H   0  0  0  0  0  0  0  0  0  0  0  0
    4.4917    0.7929   28.0085 H   0  0  0  0  0  0  0  0  0  0  0  0
    2.8756   -0.5586   29.1838 H   0  0  0  0  0  0  0  0  0  0  0  0
    0.7027   -1.3739   29.7230 H   0  0  0  0  0  0  0  0  0  0  0  0
    1.0809    0.1527   30.5520 H   0  0  0  0  0  0  0  0  0  0  0  0
   -1.0915    1.1218   29.7339 H   0  0  0  0  0  0  0  0  0  0  0  0
   -1.4704   -0.3802   28.9190 H   0  0  0  0  0  0  0  0  0  0  0  0
   -1.8829    1.2131   32.4808 H   0  0  0  0  0  0  0  0  0  0  0  0
   -3.4497   -0.5876   33.8264 H   0  0  0  0  0  0  0  0  0  0  0  0
   -2.1944   -2.4519   30.4596 H   0  0  0  0  0  0  0  0  0  0  0  0
    3.3741    0.2431   24.9594 H   0  0  0  0  0  0  0  0  0  0  0  0
    3.3262   -1.5411   24.7523 H   0  0  0  0  0  0  0  0  0  0  0  0
    5.7385   -1.1256   23.7088 H   0  0  0  0  0  0  0  0  0  0  0  0
    7.2458   -1.1694   20.6338 H   0  0  0  0  0  0  0  0  0  0  0  0
    6.4599    1.3841   17.5548 H   0  0  0  0  0  0  0  0  0  0  0  0
    5.4364    3.4935   19.1663 H   0  0  0  0  0  0  0  0  0  0  0  0
    7.1157    3.3296   18.7940 H   0  0  0  0  0  0  0  0  0  0  0  0
    6.7013    3.5442   20.5068 H   0  0  0  0  0  0  0  0  0  0  0  0
  1  2  1  0
  2  3  1  0
  3  4  1  0
  4  5  1  0
  5  6  2  0
  5  7  1  0
  7  8  1  0
  8  9  1  0
  9 10  2  0
 10 11  1  0
 11 12  2  0
 12 13  1  0
  2 14  1  0
 14 15  1  0
 15 16  1  0
 16 17  2  0
 16 18  1  0
 18 19  2  0
 19 20  1  0
 20 21  2  0
 21 22  1  0
 22 23  1  0
 13  9  1  0
 22 18  1  0
  1 24  1  0
  1 25  1  0
  1 26  1  0
  2 27  1  0
  3 28  1  0
  3 29  1  0
  4 30  1  0
  7 31  1  0
  7 32  1  0
  8 33  1  0
  8 34  1  0
 10 35  1  0
 11 36  1  0
 13 37  1  0
 14 38  1  0
 14 39  1  0
 15 40  1  0
 19 41  1  0
 21 42  1  0
 23 43  1  0
 23 44  1  0
 23 45  1  0
M  END
>  <Energy>  (826) 
168.89556124025768

>  <compound_id>  (826) 
8130

>  <target_id>  (826) 
1

>  <reference_id>  (826) 
80

>  <inspiration_ids>  (826) 
[80, 7]

>  <energy_score>  (826) 
179.23576688007148

>  <distance_score>  (826) 
9.590330144686666

>  <path>  (826) 
/opt/xchem-fragalysis-2/maxwin/BulkDock/SCRATCH/511020/C8130-P80/C8130-P80.minimised.mol

>  <scratch_subdir>  (826) 
/opt/xchem-fragalysis-2/maxwin/BulkDock/SCRATCH/511020/C8130-P80

>  <fragmenstein_runtime>  (826) 
11.286364793777466

>  <fragmenstein_outcome>  (826) 
too moved

>  <fragmenstein_mode>  (826) 
expansion

>  <fragmenstein_error>  (826) 


$$$$
C8130-P7
     RDKit          3D

 45 46  0  0  0  0  0  0  0  0999 V2000
    3.7852   -2.0810   25.5890 C   0  0  0  0  0  0  0  0  0  0  0  0
    4.5003   -0.8615   24.9803 C   0  0  0  0  0  0  0  0  0  0  0  0
    3.7978    0.3814   25.6884 C   0  0  0  0  0  0  0  0  0  0  0  0
    2.9178    0.1338   26.8857 N   0  0  0  0  0  0  0  0  0  0  0  0
    1.7320    0.8305   27.3576 C   0  0  0  0  0  0  0  0  0  0  0  0
    1.1998    1.8277   26.9561 O   0  0  0  0  0  0  0  0  0  0  0  0
    1.0695    0.0568   28.5554 C   0  0  0  0  0  0  0  0  0  0  0  0
   -0.2809    0.6910   28.9884 C   0  0  0  0  0  0  0  0  0  0  0  0
   -1.0792    0.0127   30.0959 C   0  0  0  0  0  0  0  0  0  0  0  0
   -1.7131   -1.2118   30.1904 C   0  0  0  0  0  0  0  0  0  0  0  0
   -2.4377   -1.1781   31.4040 C   0  0  0  0  0  0  0  0  0  0  0  0
   -2.2965   -0.0150   32.0407 N   0  0  0  0  0  0  0  0  0  0  0  0
   -1.4223    0.6579   31.2627 N   0  0  0  0  0  0  0  0  0  0  0  0
    4.7015   -1.1890   23.2410 C   0  0  0  0  0  0  0  0  0  0  0  0
    4.8978    0.2055   21.8381 N   0  0  0  0  0  0  0  0  0  0  0  0
    6.1454    0.4200   20.5366 C   0  0  0  0  0  0  0  0  0  0  0  0
    7.1447   -0.2788   20.4037 O   0  0  0  0  0  0  0  0  0  0  0  0
    6.0483    1.4817   19.2695 C   0  0  0  0  0  0  0  0  0  0  0  0
    6.8369    1.0577   18.1633 C   0  0  0  0  0  0  0  0  0  0  0  0
    7.0763    1.9798   17.1995 N   0  0  0  0  0  0  0  0  0  0  0  0
    6.2816    2.9447   17.5435 C   0  0  0  0  0  0  0  0  0  0  0  0
    5.4437    2.5643   18.5823 N   0  0  0  0  0  0  0  0  0  0  0  0
    4.1249    3.1848   18.5439 C   0  0  0  0  0  0  0  0  0  0  0  0
    3.8956   -2.9897   25.0068 H   0  0  0  0  0  0  0  0  0  0  0  0
    2.7281   -1.8918   25.6854 H   0  0  0  0  0  0  0  0  0  0  0  0
    4.1294   -2.2642   26.6124 H   0  0  0  0  0  0  0  0  0  0  0  0
    5.5110   -0.9148   25.3757 H   0  0  0  0  0  0  0  0  0  0  0  0
    3.2545    1.0335   25.0032 H   0  0  0  0  0  0  0  0  0  0  0  0
    4.5944    0.9570   26.1639 H   0  0  0  0  0  0  0  0  0  0  0  0
    3.1250   -0.6305   27.5166 H   0  0  0  0  0  0  0  0  0  0  0  0
    0.9061   -0.9814   28.2439 H   0  0  0  0  0  0  0  0  0  0  0  0
    1.7702    0.0617   29.3975 H   0  0  0  0  0  0  0  0  0  0  0  0
   -0.9385    0.7437   28.1097 H   0  0  0  0  0  0  0  0  0  0  0  0
   -0.0948    1.7325   29.2835 H   0  0  0  0  0  0  0  0  0  0  0  0
   -1.6983   -2.0072   29.4566 H   0  0  0  0  0  0  0  0  0  0  0  0
   -3.0792   -1.9430   31.8221 H   0  0  0  0  0  0  0  0  0  0  0  0
   -1.1138    1.5736   31.5693 H   0  0  0  0  0  0  0  0  0  0  0  0
    5.3890   -1.9705   23.1242 H   0  0  0  0  0  0  0  0  0  0  0  0
    3.8662   -1.9002   23.1644 H   0  0  0  0  0  0  0  0  0  0  0  0
    4.1371    0.8507   21.6788 H   0  0  0  0  0  0  0  0  0  0  0  0
    7.3391    0.1100   18.1091 H   0  0  0  0  0  0  0  0  0  0  0  0
    6.1573    3.8790   17.0089 H   0  0  0  0  0  0  0  0  0  0  0  0
    3.3920    2.7387   19.2102 H   0  0  0  0  0  0  0  0  0  0  0  0
    3.7383    3.0859   17.5232 H   0  0  0  0  0  0  0  0  0  0  0  0
    4.2447    4.2472   18.7796 H   0  0  0  0  0  0  0  0  0  0  0  0
  1  2  1  0
  2  3  1  0
  3  4  1  0
  4  5  1  0
  5  6  2  0
  5  7  1  0
  7  8  1  0
  8  9  1  0
  9 10  2  0
 10 11  1  0
 11 12  2  0
 12 13  1  0
  2 14  1  0
 14 15  1  0
 15 16  1  0
 16 17  2  0
 16 18  1  0
 18 19  2  0
 19 20  1  0
 20 21  2  0
 21 22  1  0
 22 23  1  0
 13  9  1  0
 22 18  1  0
  1 24  1  0
  1 25  1  0
  1 26  1  0
  2 27  1  0
  3 28  1  0
  3 29  1  0
  4 30  1  0
  7 31  1  0
  7 32  1  0
  8 33  1  0
  8 34  1  0
 10 35  1  0
 11 36  1  0
 13 37  1  0
 14 38  1  0
 14 39  1  0
 15 40  1  0
 19 41  1  0
 21 42  1  0
 23 43  1  0
 23 44  1  0
 23 45  1  0
M  END
>  <Energy>  (827) 
211.87661080883439

>  <compound_id>  (827) 
8130

>  <target_id>  (827) 
1

>  <reference_id>  (827) 
7

>  <inspiration_ids>  (827) 
[80, 7]

>  <energy_score>  (827) 
222.21681644864677

>  <distance_score>  (827) 
10.226768873382838

>  <path>  (827) 
/opt/xchem-fragalysis-2/maxwin/BulkDock/SCRATCH/511020/C8130-P7/C8130-P7.minimised.mol

>  <scratch_subdir>  (827) 
/opt/xchem-fragalysis-2/maxwin/BulkDock/SCRATCH/511020/C8130-P7

>  <fragmenstein_runtime>  (827) 
20.074692487716675

>  <fragmenstein_outcome>  (827) 
too moved

>  <fragmenstein_mode>  (827) 
expansion

>  <fragmenstein_error>  (827) 


$$$$
C8131-P80
     RDKit          3D

 42 43  0  0  0  0  0  0  0  0999 V2000
    1.6941   -4.0490   22.3315 C   0  0  0  0  0  0  0  0  0  0  0  0
    3.1852   -3.3869   22.5365 C   0  0  0  0  0  0  0  0  0  0  0  0
    3.8171   -2.7025   24.2260 C   0  0  0  0  0  0  0  0  0  0  0  0
    3.2113   -1.8132   25.2888 N   0  0  0  0  0  0  0  0  0  0  0  0
    2.8894   -2.0799   26.7061 C   0  0  0  0  0  0  0  0  0  0  0  0
    3.1026   -3.0485   27.3898 O   0  0  0  0  0  0  0  0  0  0  0  0
    2.0815   -0.9689   27.4947 C   0  0  0  0  0  0  0  0  0  0  0  0
    0.6158   -1.4118   27.7944 C   0  0  0  0  0  0  0  0  0  0  0  0
   -0.1300   -1.2069   29.1137 C   0  0  0  0  0  0  0  0  0  0  0  0
   -0.0018   -0.4005   30.2265 C   0  0  0  0  0  0  0  0  0  0  0  0
   -1.1114   -0.7037   31.0536 C   0  0  0  0  0  0  0  0  0  0  0  0
   -1.9099   -1.6252   30.5144 N   0  0  0  0  0  0  0  0  0  0  0  0
   -1.3046   -1.9123   29.3420 N   0  0  0  0  0  0  0  0  0  0  0  0
    4.6339   -3.5220   20.9735 C   0  0  0  0  0  0  0  0  0  0  0  0
    4.8482   -4.6217   19.5585 N   0  0  0  0  0  0  0  0  0  0  0  0
    3.8248   -5.3752   18.7117 C   0  0  0  0  0  0  0  0  0  0  0  0
    2.6238   -5.4116   18.7852 O   0  0  0  0  0  0  0  0  0  0  0  0
    4.4332   -6.1090   17.6117 C   0  0  0  0  0  0  0  0  0  0  0  0
    5.6670   -6.6918   17.4026 C   0  0  0  0  0  0  0  0  0  0  0  0
    5.7746   -7.2665   16.1671 N   0  0  0  0  0  0  0  0  0  0  0  0
    4.5892   -7.0951   15.6468 C   0  0  0  0  0  0  0  0  0  0  0  0
    4.0031   -7.6875   14.1708 Cl  0  0  0  0  0  0  0  0  0  0  0  0
    3.7532   -6.3932   16.4491 N   0  0  0  0  0  0  0  0  0  0  0  0
    1.5060   -4.7097   21.4799 H   0  0  0  0  0  0  0  0  0  0  0  0
    0.9875   -3.2349   22.2295 H   0  0  0  0  0  0  0  0  0  0  0  0
    1.3712   -4.6949   23.1325 H   0  0  0  0  0  0  0  0  0  0  0  0
    2.7105   -2.4709   22.7504 H   0  0  0  0  0  0  0  0  0  0  0  0
    4.6883   -2.0955   23.9418 H   0  0  0  0  0  0  0  0  0  0  0  0
    4.0967   -3.5446   24.8414 H   0  0  0  0  0  0  0  0  0  0  0  0
    2.9595   -0.8650   25.0657 H   0  0  0  0  0  0  0  0  0  0  0  0
    2.1134   -0.0190   26.9577 H   0  0  0  0  0  0  0  0  0  0  0  0
    2.6190   -0.8048   28.4369 H   0  0  0  0  0  0  0  0  0  0  0  0
   -0.0092   -0.8535   27.0942 H   0  0  0  0  0  0  0  0  0  0  0  0
    0.5251   -2.4795   27.5696 H   0  0  0  0  0  0  0  0  0  0  0  0
    0.7874    0.3113   30.4228 H   0  0  0  0  0  0  0  0  0  0  0  0
   -1.3587   -0.2888   32.0221 H   0  0  0  0  0  0  0  0  0  0  0  0
   -1.7425   -2.5917   28.7218 H   0  0  0  0  0  0  0  0  0  0  0  0
    5.0226   -2.6453   20.3357 H   0  0  0  0  0  0  0  0  0  0  0  0
    5.5708   -3.1094   21.4334 H   0  0  0  0  0  0  0  0  0  0  0  0
    5.7800   -4.8846   19.2701 H   0  0  0  0  0  0  0  0  0  0  0  0
    6.4877   -6.7387   18.0928 H   0  0  0  0  0  0  0  0  0  0  0  0
    2.7852   -6.1652   16.2653 H   0  0  0  0  0  0  0  0  0  0  0  0
  1  2  1  0
  2  3  1  0
  3  4  1  0
  4  5  1  0
  5  6  2  0
  5  7  1  0
  7  8  1  0
  8  9  1  0
  9 10  2  0
 10 11  1  0
 11 12  2  0
 12 13  1  0
  2 14  1  0
 14 15  1  0
 15 16  1  0
 16 17  2  0
 16 18  1  0
 18 19  2  0
 19 20  1  0
 20 21  2  0
 21 22  1  0
 21 23  1  0
 13  9  1  0
 23 18  1  0
  1 24  1  0
  1 25  1  0
  1 26  1  0
  2 27  1  0
  3 28  1  0
  3 29  1  0
  4 30  1  0
  7 31  1  0
  7 32  1  0
  8 33  1  0
  8 34  1  0
 10 35  1  0
 11 36  1  0
 13 37  1  0
 14 38  1  0
 14 39  1  0
 15 40  1  0
 19 41  1  0
 23 42  1  0
M  END
>  <Energy>  (828) 
250.25498932627073

>  <compound_id>  (828) 
8131

>  <target_id>  (828) 
1

>  <reference_id>  (828) 
80

>  <inspiration_ids>  (828) 
[80, 7]

>  <energy_score>  (828) 
260.9602358053553

>  <distance_score>  (828) 
11.518721099422221

>  <path>  (828) 
/opt/xchem-fragalysis-2/maxwin/BulkDock/SCRATCH/511020/C8131-P80/C8131-P80.minimised.mol

>  <scratch_subdir>  (828) 
/opt/xchem-fragalysis-2/maxwin/BulkDock/SCRATCH/511020/C8131-P80

>  <fragmenstein_runtime>  (828) 
32.87189698219299

>  <fragmenstein_outcome>  (828) 
too moved

>  <fragmenstein_mode>  (828) 
expansion

>  <fragmenstein_error>  (828) 


$$$$
C8131-P7
     RDKit          3D

 42 43  0  0  0  0  0  0  0  0999 V2000
   -1.0173  -10.0533   20.8164 C   0  0  0  0  0  0  0  0  0  0  0  0
    0.3389   -9.4580   20.4367 C   0  0  0  0  0  0  0  0  0  0  0  0
    0.8473   -8.3700   21.4014 C   0  0  0  0  0  0  0  0  0  0  0  0
    0.1108   -8.0731   22.6494 N   0  0  0  0  0  0  0  0  0  0  0  0
    0.2643   -6.9829   23.6206 C   0  0  0  0  0  0  0  0  0  0  0  0
    0.9945   -6.0439   23.6175 O   0  0  0  0  0  0  0  0  0  0  0  0
   -0.7548   -6.9226   24.8453 C   0  0  0  0  0  0  0  0  0  0  0  0
   -0.6940   -7.0930   26.3777 C   0  0  0  0  0  0  0  0  0  0  0  0
   -0.5270   -6.2703   27.6771 C   0  0  0  0  0  0  0  0  0  0  0  0
   -0.5439   -6.8345   28.9562 C   0  0  0  0  0  0  0  0  0  0  0  0
   -0.2627   -5.8156   29.8804 C   0  0  0  0  0  0  0  0  0  0  0  0
   -0.2190   -4.6355   29.2748 N   0  0  0  0  0  0  0  0  0  0  0  0
   -0.3274   -4.9382   27.9593 N   0  0  0  0  0  0  0  0  0  0  0  0
    0.2997   -9.0500   18.9455 C   0  0  0  0  0  0  0  0  0  0  0  0
    1.2689   -8.0993   18.4460 N   0  0  0  0  0  0  0  0  0  0  0  0
    1.1134   -6.9662   17.5894 C   0  0  0  0  0  0  0  0  0  0  0  0
    0.1309   -6.4668   17.1293 O   0  0  0  0  0  0  0  0  0  0  0  0
    2.3718   -6.3499   17.1726 C   0  0  0  0  0  0  0  0  0  0  0  0
    3.7219   -6.6680   17.1898 C   0  0  0  0  0  0  0  0  0  0  0  0
    4.4765   -5.7513   16.4763 N   0  0  0  0  0  0  0  0  0  0  0  0
    3.5988   -4.8747   16.0599 C   0  0  0  0  0  0  0  0  0  0  0  0
    3.7866   -3.5481   15.0223 Cl  0  0  0  0  0  0  0  0  0  0  0  0
    2.3535   -5.1355   16.5090 N   0  0  0  0  0  0  0  0  0  0  0  0
   -1.8004   -9.2895   20.8484 H   0  0  0  0  0  0  0  0  0  0  0  0
   -0.9674  -10.5373   21.7919 H   0  0  0  0  0  0  0  0  0  0  0  0
   -1.3229  -10.8183   20.0941 H   0  0  0  0  0  0  0  0  0  0  0  0
    1.0664  -10.2806   20.4986 H   0  0  0  0  0  0  0  0  0  0  0  0
    1.8593   -8.6718   21.6664 H   0  0  0  0  0  0  0  0  0  0  0  0
    1.0613   -7.4410   20.8936 H   0  0  0  0  0  0  0  0  0  0  0  0
   -0.6537   -8.6496   22.9233 H   0  0  0  0  0  0  0  0  0  0  0  0
   -1.3791   -7.7480   24.5635 H   0  0  0  0  0  0  0  0  0  0  0  0
   -1.3574   -6.0385   24.6453 H   0  0  0  0  0  0  0  0  0  0  0  0
   -0.2241   -8.0553   26.5898 H   0  0  0  0  0  0  0  0  0  0  0  0
   -1.7711   -7.2155   26.5053 H   0  0  0  0  0  0  0  0  0  0  0  0
   -0.6352   -7.8867   29.1771 H   0  0  0  0  0  0  0  0  0  0  0  0
   -0.1169   -5.8850   30.9513 H   0  0  0  0  0  0  0  0  0  0  0  0
   -0.1858   -4.1528   27.3466 H   0  0  0  0  0  0  0  0  0  0  0  0
   -0.6856   -8.6402   18.6962 H   0  0  0  0  0  0  0  0  0  0  0  0
    0.4107   -9.9498   18.3281 H   0  0  0  0  0  0  0  0  0  0  0  0
    2.2539   -8.2858   18.5684 H   0  0  0  0  0  0  0  0  0  0  0  0
    4.1957   -7.5386   17.6235 H   0  0  0  0  0  0  0  0  0  0  0  0
    1.5142   -4.6103   16.3036 H   0  0  0  0  0  0  0  0  0  0  0  0
  1  2  1  0
  2  3  1  0
  3  4  1  0
  4  5  1  0
  5  6  2  0
  5  7  1  0
  7  8  1  0
  8  9  1  0
  9 10  2  0
 10 11  1  0
 11 12  2  0
 12 13  1  0
  2 14  1  0
 14 15  1  0
 15 16  1  0
 16 17  2  0
 16 18  1  0
 18 19  2  0
 19 20  1  0
 20 21  2  0
 21 22  1  0
 21 23  1  0
 13  9  1  0
 23 18  1  0
  1 24  1  0
  1 25  1  0
  1 26  1  0
  2 27  1  0
  3 28  1  0
  3 29  1  0
  4 30  1  0
  7 31  1  0
  7 32  1  0
  8 33  1  0
  8 34  1  0
 10 35  1  0
 11 36  1  0
 13 37  1  0
 14 38  1  0
 14 39  1  0
 15 40  1  0
 19 41  1  0
 23 42  1  0
M  END
>  <Energy>  (829) 
27.112899708226774

>  <compound_id>  (829) 
8131

>  <target_id>  (829) 
1

>  <reference_id>  (829) 
7

>  <inspiration_ids>  (829) 
[80, 7]

>  <energy_score>  (829) 
37.81814618731224

>  <distance_score>  (829) 
13.174986281976624

>  <path>  (829) 
/opt/xchem-fragalysis-2/maxwin/BulkDock/SCRATCH/511020/C8131-P7/C8131-P7.minimised.mol

>  <scratch_subdir>  (829) 
/opt/xchem-fragalysis-2/maxwin/BulkDock/SCRATCH/511020/C8131-P7

>  <fragmenstein_runtime>  (829) 
17.816065788269043

>  <fragmenstein_outcome>  (829) 
too moved

>  <fragmenstein_mode>  (829) 
expansion

>  <fragmenstein_error>  (829) 


$$$$
C8132-P80
     RDKit          3D

 42 43  0  0  0  0  0  0  0  0999 V2000
    8.7278    0.1650   16.1229 C   0  0  0  0  0  0  0  0  0  0  0  0
    7.7017   -0.2932   17.0902 C   0  0  0  0  0  0  0  0  0  0  0  0
    7.6573   -0.2926   18.5234 N   0  0  0  0  0  0  0  0  0  0  0  0
    6.2346   -0.7180   19.1462 C   0  0  0  0  0  0  0  0  0  0  0  0
    5.7219    0.0726   20.5431 C   0  0  0  0  0  0  0  0  0  0  0  0
    4.6347    1.3233   20.2988 C   0  0  0  0  0  0  0  0  0  0  0  0
    4.4233    1.5752   19.1472 O   0  0  0  0  0  0  0  0  0  0  0  0
    4.1792    1.9873   21.5087 N   0  0  0  0  0  0  0  0  0  0  0  0
    3.3967    3.2365   21.6973 C   0  0  0  0  0  0  0  0  0  0  0  0
    4.3172    4.4218   22.0213 C   0  0  0  0  0  0  0  0  0  0  0  0
    2.0699    3.3540   22.5248 C   0  0  0  0  0  0  0  0  0  0  0  0
    1.9377    3.0627   23.9677 N   0  0  0  0  0  0  0  0  0  0  0  0
    0.7525    3.0548   24.8446 C   0  0  0  0  0  0  0  0  0  0  0  0
   -0.3886    3.3606   24.6203 O   0  0  0  0  0  0  0  0  0  0  0  0
    1.0909    2.6325   26.3164 C   0  0  0  0  0  0  0  0  0  0  0  0
   -0.0767    2.0304   27.1329 C   0  0  0  0  0  0  0  0  0  0  0  0
   -0.1187    0.9342   27.9846 C   0  0  0  0  0  0  0  0  0  0  0  0
   -1.4301    0.8772   28.4912 C   0  0  0  0  0  0  0  0  0  0  0  0
   -2.1803    1.8685   28.0210 N   0  0  0  0  0  0  0  0  0  0  0  0
   -1.3536    2.5526   27.1983 N   0  0  0  0  0  0  0  0  0  0  0  0
    5.4627   -1.0799   18.0025 C   0  0  0  0  0  0  0  0  0  0  0  0
    6.3616   -0.8493   16.6893 N   0  0  0  0  0  0  0  0  0  0  0  0
    8.6411    1.2444   15.9723 H   0  0  0  0  0  0  0  0  0  0  0  0
    9.7467   -0.0234   16.4591 H   0  0  0  0  0  0  0  0  0  0  0  0
    8.6146   -0.3488   15.1644 H   0  0  0  0  0  0  0  0  0  0  0  0
    6.6322    0.5558   20.9240 H   0  0  0  0  0  0  0  0  0  0  0  0
    5.4026   -0.6380   21.3000 H   0  0  0  0  0  0  0  0  0  0  0  0
    4.4882    1.4443   22.3260 H   0  0  0  0  0  0  0  0  0  0  0  0
    3.0658    3.4422   20.6682 H   0  0  0  0  0  0  0  0  0  0  0  0
    4.5105    4.5077   23.0943 H   0  0  0  0  0  0  0  0  0  0  0  0
    5.2763    4.3408   21.4989 H   0  0  0  0  0  0  0  0  0  0  0  0
    3.8490    5.3630   21.7107 H   0  0  0  0  0  0  0  0  0  0  0  0
    1.2769    2.8281   21.9895 H   0  0  0  0  0  0  0  0  0  0  0  0
    1.7405    4.4007   22.4531 H   0  0  0  0  0  0  0  0  0  0  0  0
    2.7255    2.6598   24.4685 H   0  0  0  0  0  0  0  0  0  0  0  0
    1.4394    3.5331   26.8359 H   0  0  0  0  0  0  0  0  0  0  0  0
    1.9162    1.9128   26.3077 H   0  0  0  0  0  0  0  0  0  0  0  0
    0.6966    0.2577   28.2011 H   0  0  0  0  0  0  0  0  0  0  0  0
   -1.8631    0.1589   29.1742 H   0  0  0  0  0  0  0  0  0  0  0  0
   -1.7252    3.3550   26.6942 H   0  0  0  0  0  0  0  0  0  0  0  0
    4.4099   -1.1832   17.7807 H   0  0  0  0  0  0  0  0  0  0  0  0
    5.9697   -0.8121   15.7577 H   0  0  0  0  0  0  0  0  0  0  0  0
  1  2  1  0
  2  3  2  0
  3  4  1  0
  4  5  1  0
  5  6  1  0
  6  7  2  0
  6  8  1  0
  8  9  1  0
  9 10  1  0
  9 11  1  0
 11 12  1  0
 12 13  1  0
 13 14  2  0
 13 15  1  0
 15 16  1  0
 16 17  2  0
 17 18  1  0
 18 19  2  0
 19 20  1  0
  4 21  2  0
 21 22  1  0
 22  2  1  0
 20 16  1  0
  1 23  1  0
  1 24  1  0
  1 25  1  0
  5 26  1  0
  5 27  1  0
  8 28  1  0
  9 29  1  0
 10 30  1  0
 10 31  1  0
 10 32  1  0
 11 33  1  0
 11 34  1  0
 12 35  1  0
 15 36  1  0
 15 37  1  0
 17 38  1  0
 18 39  1  0
 20 40  1  0
 21 41  1  0
 22 42  1  0
M  END
>  <Energy>  (830) 
132.27214015355739

>  <compound_id>  (830) 
8132

>  <target_id>  (830) 
1

>  <reference_id>  (830) 
80

>  <inspiration_ids>  (830) 
[80, 7]

>  <energy_score>  (830) 
58.467616276226295

>  <distance_score>  (830) 
11.519460840390325

>  <path>  (830) 
/opt/xchem-fragalysis-2/maxwin/BulkDock/SCRATCH/511020/C8132-P80/C8132-P80.minimised.mol

>  <scratch_subdir>  (830) 
/opt/xchem-fragalysis-2/maxwin/BulkDock/SCRATCH/511020/C8132-P80

>  <fragmenstein_runtime>  (830) 
15.292474031448364

>  <fragmenstein_outcome>  (830) 
too moved

>  <fragmenstein_mode>  (830) 
expansion

>  <fragmenstein_error>  (830) 


$$$$
C8132-P7
     RDKit          3D

 42 43  0  0  0  0  0  0  0  0999 V2000
    8.0603    0.2830   17.6196 C   0  0  0  0  0  0  0  0  0  0  0  0
    7.4328    0.1314   19.3388 C   0  0  0  0  0  0  0  0  0  0  0  0
    7.4598   -0.7942   20.2793 N   0  0  0  0  0  0  0  0  0  0  0  0
    6.7487   -0.3329   21.4327 C   0  0  0  0  0  0  0  0  0  0  0  0
    6.3352   -1.2351   22.5867 C   0  0  0  0  0  0  0  0  0  0  0  0
    6.5017   -0.8539   24.0995 C   0  0  0  0  0  0  0  0  0  0  0  0
    7.6159   -0.6814   24.5205 O   0  0  0  0  0  0  0  0  0  0  0  0
    5.2025   -0.8654   24.7976 N   0  0  0  0  0  0  0  0  0  0  0  0
    4.8689   -0.7666   26.2552 C   0  0  0  0  0  0  0  0  0  0  0  0
    5.6774    0.2679   27.0275 C   0  0  0  0  0  0  0  0  0  0  0  0
    3.3272   -0.5320   26.4599 C   0  0  0  0  0  0  0  0  0  0  0  0
    2.6764   -0.7963   27.7612 N   0  0  0  0  0  0  0  0  0  0  0  0
    1.3679   -0.3710   28.2885 C   0  0  0  0  0  0  0  0  0  0  0  0
    0.5374    0.3632   27.8231 O   0  0  0  0  0  0  0  0  0  0  0  0
    1.0847   -1.0595   29.6668 C   0  0  0  0  0  0  0  0  0  0  0  0
   -0.2849   -0.8270   30.3308 C   0  0  0  0  0  0  0  0  0  0  0  0
   -0.8476   -1.4039   31.4623 C   0  0  0  0  0  0  0  0  0  0  0  0
   -2.1023   -0.7878   31.6333 C   0  0  0  0  0  0  0  0  0  0  0  0
   -2.3347    0.1304   30.6962 N   0  0  0  0  0  0  0  0  0  0  0  0
   -1.2442    0.0575   29.8920 N   0  0  0  0  0  0  0  0  0  0  0  0
    6.3056    0.9268   21.1439 C   0  0  0  0  0  0  0  0  0  0  0  0
    6.9675    1.3065   20.0254 N   0  0  0  0  0  0  0  0  0  0  0  0
    7.9830    1.3654   17.3703 H   0  0  0  0  0  0  0  0  0  0  0  0
    9.1217    0.2522   17.3722 H   0  0  0  0  0  0  0  0  0  0  0  0
    7.5422   -0.3062   16.8564 H   0  0  0  0  0  0  0  0  0  0  0  0
    6.8303   -2.2047   22.4658 H   0  0  0  0  0  0  0  0  0  0  0  0
    5.2887   -1.4119   22.4400 H   0  0  0  0  0  0  0  0  0  0  0  0
    4.4511   -0.9592   24.1074 H   0  0  0  0  0  0  0  0  0  0  0  0
    5.1103   -1.7430   26.6766 H   0  0  0  0  0  0  0  0  0  0  0  0
    5.3675    1.2879   26.7926 H   0  0  0  0  0  0  0  0  0  0  0  0
    5.5289    0.1335   28.1049 H   0  0  0  0  0  0  0  0  0  0  0  0
    6.7488    0.1774   26.8299 H   0  0  0  0  0  0  0  0  0  0  0  0
    3.0643    0.4904   26.1668 H   0  0  0  0  0  0  0  0  0  0  0  0
    2.8173   -1.2072   25.7711 H   0  0  0  0  0  0  0  0  0  0  0  0
    3.0755   -1.4889   28.3828 H   0  0  0  0  0  0  0  0  0  0  0  0
    1.2019   -2.1410   29.5243 H   0  0  0  0  0  0  0  0  0  0  0  0
    1.8574   -0.7177   30.3661 H   0  0  0  0  0  0  0  0  0  0  0  0
   -0.3994   -2.1632   32.0870 H   0  0  0  0  0  0  0  0  0  0  0  0
   -2.8430   -0.9627   32.4025 H   0  0  0  0  0  0  0  0  0  0  0  0
   -1.1956    0.6463   29.0614 H   0  0  0  0  0  0  0  0  0  0  0  0
    5.5945    1.5806   21.6230 H   0  0  0  0  0  0  0  0  0  0  0  0
    6.8869    2.2185   19.5952 H   0  0  0  0  0  0  0  0  0  0  0  0
  1  2  1  0
  2  3  2  0
  3  4  1  0
  4  5  1  0
  5  6  1  0
  6  7  2  0
  6  8  1  0
  8  9  1  0
  9 10  1  0
  9 11  1  0
 11 12  1  0
 12 13  1  0
 13 14  2  0
 13 15  1  0
 15 16  1  0
 16 17  2  0
 17 18  1  0
 18 19  2  0
 19 20  1  0
  4 21  2  0
 21 22  1  0
 22  2  1  0
 20 16  1  0
  1 23  1  0
  1 24  1  0
  1 25  1  0
  5 26  1  0
  5 27  1  0
  8 28  1  0
  9 29  1  0
 10 30  1  0
 10 31  1  0
 10 32  1  0
 11 33  1  0
 11 34  1  0
 12 35  1  0
 15 36  1  0
 15 37  1  0
 17 38  1  0
 18 39  1  0
 20 40  1  0
 21 41  1  0
 22 42  1  0
M  END
>  <Energy>  (831) 
104.92368101574195

>  <compound_id>  (831) 
8132

>  <target_id>  (831) 
1

>  <reference_id>  (831) 
7

>  <inspiration_ids>  (831) 
[80, 7]

>  <energy_score>  (831) 
31.119157138404944

>  <distance_score>  (831) 
10.462276302546542

>  <path>  (831) 
/opt/xchem-fragalysis-2/maxwin/BulkDock/SCRATCH/511020/C8132-P7/C8132-P7.minimised.mol

>  <scratch_subdir>  (831) 
/opt/xchem-fragalysis-2/maxwin/BulkDock/SCRATCH/511020/C8132-P7

>  <fragmenstein_runtime>  (831) 
14.376488447189331

>  <fragmenstein_outcome>  (831) 
too moved

>  <fragmenstein_mode>  (831) 
expansion

>  <fragmenstein_error>  (831) 


$$$$
C8133-P80
     RDKit          3D

 42 43  0  0  0  0  0  0  0  0999 V2000
    3.5564    3.6478   17.6702 C   0  0  0  0  0  0  0  0  0  0  0  0
    4.8412    2.9901   18.0084 C   0  0  0  0  0  0  0  0  0  0  0  0
    5.7795    2.6974   17.0512 N   0  0  0  0  0  0  0  0  0  0  0  0
    6.8510    2.1308   17.6706 C   0  0  0  0  0  0  0  0  0  0  0  0
    6.6558    2.0386   18.9650 N   0  0  0  0  0  0  0  0  0  0  0  0
    5.3844    2.5600   19.2055 C   0  0  0  0  0  0  0  0  0  0  0  0
    4.9027    2.6781   20.6299 C   0  0  0  0  0  0  0  0  0  0  0  0
    3.3800    2.8021   20.9367 C   0  0  0  0  0  0  0  0  0  0  0  0
    2.5794    2.2356   20.2468 O   0  0  0  0  0  0  0  0  0  0  0  0
    3.1991    3.5799   22.1644 N   0  0  0  0  0  0  0  0  0  0  0  0
    2.0010    3.8253   22.9819 C   0  0  0  0  0  0  0  0  0  0  0  0
    1.7131    5.3215   23.0422 C   0  0  0  0  0  0  0  0  0  0  0  0
    2.1485    3.2268   24.4142 C   0  0  0  0  0  0  0  0  0  0  0  0
    0.9232    3.0390   25.1932 N   0  0  0  0  0  0  0  0  0  0  0  0
    0.7219    2.5503   26.5541 C   0  0  0  0  0  0  0  0  0  0  0  0
    1.5147    2.2555   27.4020 O   0  0  0  0  0  0  0  0  0  0  0  0
   -0.8037    2.4141   26.8452 C   0  0  0  0  0  0  0  0  0  0  0  0
   -1.1759    1.4627   27.9644 C   0  0  0  0  0  0  0  0  0  0  0  0
   -0.6599    0.2741   28.4436 C   0  0  0  0  0  0  0  0  0  0  0  0
   -1.4713   -0.0911   29.5373 C   0  0  0  0  0  0  0  0  0  0  0  0
   -2.4410    0.7947   29.7503 N   0  0  0  0  0  0  0  0  0  0  0  0
   -2.2861    1.6736   28.7335 N   0  0  0  0  0  0  0  0  0  0  0  0
    2.7575    2.9047   17.5871 H   0  0  0  0  0  0  0  0  0  0  0  0
    3.2782    4.3787   18.4356 H   0  0  0  0  0  0  0  0  0  0  0  0
    3.6227    4.1805   16.7156 H   0  0  0  0  0  0  0  0  0  0  0  0
    5.6920    2.8947   16.0638 H   0  0  0  0  0  0  0  0  0  0  0  0
    7.7370    1.8202   17.1339 H   0  0  0  0  0  0  0  0  0  0  0  0
    5.2340    1.7739   21.1499 H   0  0  0  0  0  0  0  0  0  0  0  0
    5.4398    3.5291   21.0648 H   0  0  0  0  0  0  0  0  0  0  0  0
    4.0851    3.9845   22.4332 H   0  0  0  0  0  0  0  0  0  0  0  0
    1.1651    3.3391   22.4683 H   0  0  0  0  0  0  0  0  0  0  0  0
    1.5870    5.7321   22.0343 H   0  0  0  0  0  0  0  0  0  0  0  0
    0.7977    5.5241   23.6072 H   0  0  0  0  0  0  0  0  0  0  0  0
    2.5374    5.8648   23.5172 H   0  0  0  0  0  0  0  0  0  0  0  0
    2.6070    2.2351   24.3533 H   0  0  0  0  0  0  0  0  0  0  0  0
    2.8315    3.8326   25.0214 H   0  0  0  0  0  0  0  0  0  0  0  0
    0.0264    3.1062   24.7298 H   0  0  0  0  0  0  0  0  0  0  0  0
   -1.3221    2.0771   25.9408 H   0  0  0  0  0  0  0  0  0  0  0  0
   -1.1671    3.4212   27.0845 H   0  0  0  0  0  0  0  0  0  0  0  0
    0.2104   -0.2498   28.0690 H   0  0  0  0  0  0  0  0  0  0  0  0
   -1.3798   -0.9540   30.1837 H   0  0  0  0  0  0  0  0  0  0  0  0
   -2.9667    2.4228   28.6285 H   0  0  0  0  0  0  0  0  0  0  0  0
  1  2  1  0
  2  3  1  0
  3  4  1  0
  4  5  2  0
  5  6  1  0
  6  7  1  0
  7  8  1  0
  8  9  2  0
  8 10  1  0
 10 11  1  0
 11 12  1  0
 11 13  1  0
 13 14  1  0
 14 15  1  0
 15 16  2  0
 15 17  1  0
 17 18  1  0
 18 19  2  0
 19 20  1  0
 20 21  2  0
 21 22  1  0
  6  2  2  0
 22 18  1  0
  1 23  1  0
  1 24  1  0
  1 25  1  0
  3 26  1  0
  4 27  1  0
  7 28  1  0
  7 29  1  0
 10 30  1  0
 11 31  1  0
 12 32  1  0
 12 33  1  0
 12 34  1  0
 13 35  1  0
 13 36  1  0
 14 37  1  0
 17 38  1  0
 17 39  1  0
 19 40  1  0
 20 41  1  0
 22 42  1  0
M  END
>  <Energy>  (832) 
56.256524099926565

>  <compound_id>  (832) 
8133

>  <target_id>  (832) 
1

>  <reference_id>  (832) 
80

>  <inspiration_ids>  (832) 
[80, 7]

>  <energy_score>  (832) 
-5.782699791156688

>  <distance_score>  (832) 
11.505678101834354

>  <path>  (832) 
/opt/xchem-fragalysis-2/maxwin/BulkDock/SCRATCH/511020/C8133-P80/C8133-P80.minimised.mol

>  <scratch_subdir>  (832) 
/opt/xchem-fragalysis-2/maxwin/BulkDock/SCRATCH/511020/C8133-P80

>  <fragmenstein_runtime>  (832) 
14.956283807754517

>  <fragmenstein_outcome>  (832) 
too moved

>  <fragmenstein_mode>  (832) 
expansion

>  <fragmenstein_error>  (832) 


$$$$
C8133-P7
     RDKit          3D

 42 43  0  0  0  0  0  0  0  0999 V2000
    4.4812    1.5493   21.1644 C   0  0  0  0  0  0  0  0  0  0  0  0
    4.7108    0.1400   20.7586 C   0  0  0  0  0  0  0  0  0  0  0  0
    4.7990   -0.1028   19.4072 N   0  0  0  0  0  0  0  0  0  0  0  0
    4.6234   -1.4266   19.2281 C   0  0  0  0  0  0  0  0  0  0  0  0
    4.7125   -2.0690   20.3627 N   0  0  0  0  0  0  0  0  0  0  0  0
    4.7912   -1.1199   21.3948 C   0  0  0  0  0  0  0  0  0  0  0  0
    4.6041   -1.8432   22.8881 C   0  0  0  0  0  0  0  0  0  0  0  0
    4.7564   -1.5522   24.6014 C   0  0  0  0  0  0  0  0  0  0  0  0
    5.8874   -1.5437   24.9904 O   0  0  0  0  0  0  0  0  0  0  0  0
    3.5100   -1.4566   25.3369 N   0  0  0  0  0  0  0  0  0  0  0  0
    3.2428   -1.2165   26.8036 C   0  0  0  0  0  0  0  0  0  0  0  0
    3.4925    0.2632   27.1040 C   0  0  0  0  0  0  0  0  0  0  0  0
    1.8575   -1.6712   27.3830 C   0  0  0  0  0  0  0  0  0  0  0  0
    1.4359   -1.3743   28.7681 N   0  0  0  0  0  0  0  0  0  0  0  0
    0.0978   -1.2864   29.3663 C   0  0  0  0  0  0  0  0  0  0  0  0
   -0.9895   -1.3556   28.8627 O   0  0  0  0  0  0  0  0  0  0  0  0
    0.1776   -1.0598   30.9067 C   0  0  0  0  0  0  0  0  0  0  0  0
   -1.1632   -0.9971   31.6576 C   0  0  0  0  0  0  0  0  0  0  0  0
   -1.5550   -0.2689   32.7715 C   0  0  0  0  0  0  0  0  0  0  0  0
   -2.8599   -0.7023   33.0793 C   0  0  0  0  0  0  0  0  0  0  0  0
   -3.2819   -1.6442   32.2381 N   0  0  0  0  0  0  0  0  0  0  0  0
   -2.2684   -1.7581   31.3438 N   0  0  0  0  0  0  0  0  0  0  0  0
    3.8771    2.0686   20.4098 H   0  0  0  0  0  0  0  0  0  0  0  0
    3.9305    1.6499   22.0951 H   0  0  0  0  0  0  0  0  0  0  0  0
    5.4310    2.0872   21.2284 H   0  0  0  0  0  0  0  0  0  0  0  0
    4.7203    0.5956   18.6833 H   0  0  0  0  0  0  0  0  0  0  0  0
    4.4050   -1.8593   18.2659 H   0  0  0  0  0  0  0  0  0  0  0  0
    5.5028   -2.4207   22.6777 H   0  0  0  0  0  0  0  0  0  0  0  0
    3.7289   -2.4950   22.8089 H   0  0  0  0  0  0  0  0  0  0  0  0
    2.7421   -1.4141   24.6786 H   0  0  0  0  0  0  0  0  0  0  0  0
    4.0219   -1.7816   27.3303 H   0  0  0  0  0  0  0  0  0  0  0  0
    2.7707    0.9015   26.5847 H   0  0  0  0  0  0  0  0  0  0  0  0
    3.4225    0.4688   28.1768 H   0  0  0  0  0  0  0  0  0  0  0  0
    4.4933    0.5638   26.7754 H   0  0  0  0  0  0  0  0  0  0  0  0
    1.7604   -2.7545   27.2723 H   0  0  0  0  0  0  0  0  0  0  0  0
    1.0717   -1.1927   26.8171 H   0  0  0  0  0  0  0  0  0  0  0  0
    2.1307   -1.3564   29.5053 H   0  0  0  0  0  0  0  0  0  0  0  0
    0.7147   -0.1188   31.0750 H   0  0  0  0  0  0  0  0  0  0  0  0
    0.7656   -1.8783   31.3385 H   0  0  0  0  0  0  0  0  0  0  0  0
   -0.9585    0.4546   33.3094 H   0  0  0  0  0  0  0  0  0  0  0  0
   -3.5050   -0.3858   33.8886 H   0  0  0  0  0  0  0  0  0  0  0  0
   -2.3892   -2.3629   30.5335 H   0  0  0  0  0  0  0  0  0  0  0  0
  1  2  1  0
  2  3  1  0
  3  4  1  0
  4  5  2  0
  5  6  1  0
  6  7  1  0
  7  8  1  0
  8  9  2  0
  8 10  1  0
 10 11  1  0
 11 12  1  0
 11 13  1  0
 13 14  1  0
 14 15  1  0
 15 16  2  0
 15 17  1  0
 17 18  1  0
 18 19  2  0
 19 20  1  0
 20 21  2  0
 21 22  1  0
  6  2  2  0
 22 18  1  0
  1 23  1  0
  1 24  1  0
  1 25  1  0
  3 26  1  0
  4 27  1  0
  7 28  1  0
  7 29  1  0
 10 30  1  0
 11 31  1  0
 12 32  1  0
 12 33  1  0
 12 34  1  0
 13 35  1  0
 13 36  1  0
 14 37  1  0
 17 38  1  0
 17 39  1  0
 19 40  1  0
 20 41  1  0
 22 42  1  0
M  END
>  <Energy>  (833) 
118.06620183908261

>  <compound_id>  (833) 
8133

>  <target_id>  (833) 
1

>  <reference_id>  (833) 
7

>  <inspiration_ids>  (833) 
[80, 7]

>  <energy_score>  (833) 
56.02697794800014

>  <distance_score>  (833) 
10.20610622164633

>  <path>  (833) 
/opt/xchem-fragalysis-2/maxwin/BulkDock/SCRATCH/511020/C8133-P7/C8133-P7.minimised.mol

>  <scratch_subdir>  (833) 
/opt/xchem-fragalysis-2/maxwin/BulkDock/SCRATCH/511020/C8133-P7

>  <fragmenstein_runtime>  (833) 
14.228169441223145

>  <fragmenstein_outcome>  (833) 
too moved

>  <fragmenstein_mode>  (833) 
expansion

>  <fragmenstein_error>  (833) 


$$$$
C10597-P80
     RDKit          3D

 48 49  0  0  0  0  0  0  0  0999 V2000
    7.3632   -1.8692   29.1275 C   0  0  0  0  0  0  0  0  0  0  0  0
    6.3453   -0.9632   28.4295 C   0  0  0  0  0  0  0  0  0  0  0  0
    6.3948    0.4367   29.0458 C   0  0  0  0  0  0  0  0  0  0  0  0
    4.9379   -1.5912   28.5300 C   0  0  0  0  0  0  0  0  0  0  0  0
    3.8608   -0.9359   27.6398 C   0  0  0  0  0  0  0  0  0  0  0  0
    4.0670   -1.1148   26.0974 C   0  0  0  0  0  0  0  0  0  0  0  0
    5.1090   -2.0057   25.5955 N   0  0  0  0  0  0  0  0  0  0  0  0
    5.4888   -2.3510   24.2536 C   0  0  0  0  0  0  0  0  0  0  0  0
    5.0966   -1.9318   23.2033 O   0  0  0  0  0  0  0  0  0  0  0  0
    6.8479   -3.7972   24.0032 C   0  0  0  0  0  0  0  0  0  0  0  0
    7.5446   -5.2217   23.0374 C   0  0  0  0  0  0  0  0  0  0  0  0
    8.7213   -6.2750   23.0515 C   0  0  0  0  0  0  0  0  0  0  0  0
    8.8988   -7.0768   22.0078 N   0  0  0  0  0  0  0  0  0  0  0  0
   10.1095   -7.6848   22.1820 C   0  0  0  0  0  0  0  0  0  0  0  0
   10.7051   -7.2427   23.3331 C   0  0  0  0  0  0  0  0  0  0  0  0
    9.8004   -6.3895   23.9019 N   0  0  0  0  0  0  0  0  0  0  0  0
    2.5119   -1.2641   28.1714 N   0  0  0  0  0  0  0  0  0  0  0  0
    1.8598   -0.8772   29.4017 C   0  0  0  0  0  0  0  0  0  0  0  0
    2.2702   -0.2583   30.3411 O   0  0  0  0  0  0  0  0  0  0  0  0
    0.4289   -1.3465   29.5092 C   0  0  0  0  0  0  0  0  0  0  0  0
   -0.4440   -1.1335   30.6330 C   0  0  0  0  0  0  0  0  0  0  0  0
   -1.6331   -1.7435   30.3177 C   0  0  0  0  0  0  0  0  0  0  0  0
   -1.4618   -2.2422   29.0590 N   0  0  0  0  0  0  0  0  0  0  0  0
   -0.2218   -2.0422   28.5579 N   0  0  0  0  0  0  0  0  0  0  0  0
    7.3788   -2.8627   28.6666 H   0  0  0  0  0  0  0  0  0  0  0  0
    7.1257   -1.9905   30.1899 H   0  0  0  0  0  0  0  0  0  0  0  0
    8.3730   -1.4522   29.0509 H   0  0  0  0  0  0  0  0  0  0  0  0
    6.6494   -0.8747   27.3822 H   0  0  0  0  0  0  0  0  0  0  0  0
    7.4159    0.8329   29.0247 H   0  0  0  0  0  0  0  0  0  0  0  0
    6.0601    0.4248   30.0885 H   0  0  0  0  0  0  0  0  0  0  0  0
    5.7647    1.1394   28.4930 H   0  0  0  0  0  0  0  0  0  0  0  0
    4.9815   -2.6621   28.3001 H   0  0  0  0  0  0  0  0  0  0  0  0
    4.6244   -1.5431   29.5816 H   0  0  0  0  0  0  0  0  0  0  0  0
    3.9076    0.1451   27.8191 H   0  0  0  0  0  0  0  0  0  0  0  0
    3.1361   -1.4431   25.6332 H   0  0  0  0  0  0  0  0  0  0  0  0
    4.2843   -0.1342   25.6635 H   0  0  0  0  0  0  0  0  0  0  0  0
    5.7074   -2.5025   26.2440 H   0  0  0  0  0  0  0  0  0  0  0  0
    7.5102   -3.4820   24.8257 H   0  0  0  0  0  0  0  0  0  0  0  0
    6.1459   -4.5517   24.2124 H   0  0  0  0  0  0  0  0  0  0  0  0
    6.7880   -6.0161   23.0970 H   0  0  0  0  0  0  0  0  0  0  0  0
    7.8366   -4.8192   22.0746 H   0  0  0  0  0  0  0  0  0  0  0  0
   10.4930   -8.3998   21.4671 H   0  0  0  0  0  0  0  0  0  0  0  0
   11.6604   -7.4556   23.7906 H   0  0  0  0  0  0  0  0  0  0  0  0
    9.9695   -5.7945   24.7043 H   0  0  0  0  0  0  0  0  0  0  0  0
    1.8286   -1.7153   27.5604 H   0  0  0  0  0  0  0  0  0  0  0  0
   -0.1896   -0.6142   31.5469 H   0  0  0  0  0  0  0  0  0  0  0  0
   -2.5572   -1.8598   30.8617 H   0  0  0  0  0  0  0  0  0  0  0  0
   -2.1299   -2.7484   28.4756 H   0  0  0  0  0  0  0  0  0  0  0  0
  1  2  1  0
  2  3  1  0
  2  4  1  0
  4  5  1  0
  5  6  1  0
  6  7  1  0
  7  8  1  0
  8  9  2  0
  8 10  1  0
 10 11  1  0
 11 12  1  0
 12 13  2  0
 13 14  1  0
 14 15  2  0
 15 16  1  0
  5 17  1  0
 17 18  1  0
 18 19  2  0
 18 20  1  0
 20 21  1  0
 21 22  2  0
 22 23  1  0
 23 24  1  0
 16 12  1  0
 24 20  2  0
  1 25  1  0
  1 26  1  0
  1 27  1  0
  2 28  1  0
  3 29  1  0
  3 30  1  0
  3 31  1  0
  4 32  1  0
  4 33  1  0
  5 34  1  0
  6 35  1  0
  6 36  1  0
  7 37  1  0
 10 38  1  0
 10 39  1  0
 11 40  1  0
 11 41  1  0
 14 42  1  0
 15 43  1  0
 16 44  1  0
 17 45  1  0
 21 46  1  0
 22 47  1  0
 23 48  1  0
M  END
>  <Energy>  (834) 
199.18663410843283

>  <compound_id>  (834) 
10597

>  <target_id>  (834) 
1

>  <reference_id>  (834) 
80

>  <inspiration_ids>  (834) 
[80, 7]

>  <energy_score>  (834) 
136.2685370376011

>  <distance_score>  (834) 
11.687117641245745

>  <path>  (834) 
/opt/xchem-fragalysis-2/maxwin/BulkDock/SCRATCH/511020/C10597-P80/C10597-P80.minimised.mol

>  <scratch_subdir>  (834) 
/opt/xchem-fragalysis-2/maxwin/BulkDock/SCRATCH/511020/C10597-P80

>  <fragmenstein_runtime>  (834) 
16.778772354125977

>  <fragmenstein_outcome>  (834) 
too moved

>  <fragmenstein_mode>  (834) 
expansion

>  <fragmenstein_error>  (834) 


$$$$
C10597-P7
     RDKit          3D

 48 49  0  0  0  0  0  0  0  0999 V2000
   -2.2335   -2.5193   35.5438 C   0  0  0  0  0  0  0  0  0  0  0  0
   -0.9955   -2.4191   34.6533 C   0  0  0  0  0  0  0  0  0  0  0  0
   -0.1264   -1.2352   35.0768 C   0  0  0  0  0  0  0  0  0  0  0  0
   -1.3129   -2.4122   33.1407 C   0  0  0  0  0  0  0  0  0  0  0  0
   -1.9862   -1.1537   32.5619 C   0  0  0  0  0  0  0  0  0  0  0  0
   -1.9918   -1.1893   31.0086 C   0  0  0  0  0  0  0  0  0  0  0  0
   -0.7199   -0.9734   30.3311 N   0  0  0  0  0  0  0  0  0  0  0  0
    0.2726   -1.9141   29.8516 C   0  0  0  0  0  0  0  0  0  0  0  0
    0.3371   -3.1048   29.9613 O   0  0  0  0  0  0  0  0  0  0  0  0
    1.3136   -1.1431   29.0135 C   0  0  0  0  0  0  0  0  0  0  0  0
    2.4125   -2.0265   28.3946 C   0  0  0  0  0  0  0  0  0  0  0  0
    3.2029   -1.3069   27.3339 C   0  0  0  0  0  0  0  0  0  0  0  0
    3.0028   -0.0742   26.9128 N   0  0  0  0  0  0  0  0  0  0  0  0
    3.7812    0.0581   25.7994 C   0  0  0  0  0  0  0  0  0  0  0  0
    4.5420   -1.0575   25.5927 C   0  0  0  0  0  0  0  0  0  0  0  0
    4.2085   -1.8989   26.6083 N   0  0  0  0  0  0  0  0  0  0  0  0
   -3.3512   -0.9902   33.0863 N   0  0  0  0  0  0  0  0  0  0  0  0
   -4.1404    0.1818   33.2968 C   0  0  0  0  0  0  0  0  0  0  0  0
   -3.9246    1.3273   33.0276 O   0  0  0  0  0  0  0  0  0  0  0  0
   -5.4492   -0.1343   33.9506 C   0  0  0  0  0  0  0  0  0  0  0  0
   -6.4035    0.8170   34.4247 C   0  0  0  0  0  0  0  0  0  0  0  0
   -7.4412    0.0847   34.9422 C   0  0  0  0  0  0  0  0  0  0  0  0
   -7.1003   -1.2166   34.7486 N   0  0  0  0  0  0  0  0  0  0  0  0
   -5.8918   -1.3904   34.1682 N   0  0  0  0  0  0  0  0  0  0  0  0
   -2.9044   -3.3130   35.1995 H   0  0  0  0  0  0  0  0  0  0  0  0
   -2.7923   -1.5800   35.5799 H   0  0  0  0  0  0  0  0  0  0  0  0
   -1.9409   -2.7573   36.5727 H   0  0  0  0  0  0  0  0  0  0  0  0
   -0.4082   -3.3301   34.8339 H   0  0  0  0  0  0  0  0  0  0  0  0
    0.2183   -1.3631   36.1088 H   0  0  0  0  0  0  0  0  0  0  0  0
   -0.6755   -0.2896   35.0286 H   0  0  0  0  0  0  0  0  0  0  0  0
    0.7589   -1.1522   34.4380 H   0  0  0  0  0  0  0  0  0  0  0  0
   -1.9277   -3.2920   32.9077 H   0  0  0  0  0  0  0  0  0  0  0  0
   -0.3586   -2.5645   32.6215 H   0  0  0  0  0  0  0  0  0  0  0  0
   -1.4328   -0.2560   32.8594 H   0  0  0  0  0  0  0  0  0  0  0  0
   -2.3944   -2.1468   30.6608 H   0  0  0  0  0  0  0  0  0  0  0  0
   -2.6467   -0.3931   30.6398 H   0  0  0  0  0  0  0  0  0  0  0  0
   -0.4949   -0.0469   29.9812 H   0  0  0  0  0  0  0  0  0  0  0  0
    1.7740   -0.3758   29.6479 H   0  0  0  0  0  0  0  0  0  0  0  0
    0.7605   -0.6337   28.2131 H   0  0  0  0  0  0  0  0  0  0  0  0
    1.9601   -2.9159   27.9392 H   0  0  0  0  0  0  0  0  0  0  0  0
    3.0893   -2.3772   29.1825 H   0  0  0  0  0  0  0  0  0  0  0  0
    3.6847    0.9282   25.1732 H   0  0  0  0  0  0  0  0  0  0  0  0
    5.2148   -1.3525   24.8089 H   0  0  0  0  0  0  0  0  0  0  0  0
    4.5953   -2.8273   26.7261 H   0  0  0  0  0  0  0  0  0  0  0  0
   -3.8913   -1.8086   33.3693 H   0  0  0  0  0  0  0  0  0  0  0  0
   -6.3167    1.8944   34.3925 H   0  0  0  0  0  0  0  0  0  0  0  0
   -8.3717    0.3692   35.4126 H   0  0  0  0  0  0  0  0  0  0  0  0
   -7.6441   -2.0369   34.9931 H   0  0  0  0  0  0  0  0  0  0  0  0
  1  2  1  0
  2  3  1  0
  2  4  1  0
  4  5  1  0
  5  6  1  0
  6  7  1  0
  7  8  1  0
  8  9  2  0
  8 10  1  0
 10 11  1  0
 11 12  1  0
 12 13  2  0
 13 14  1  0
 14 15  2  0
 15 16  1  0
  5 17  1  0
 17 18  1  0
 18 19  2  0
 18 20  1  0
 20 21  1  0
 21 22  2  0
 22 23  1  0
 23 24  1  0
 16 12  1  0
 24 20  2  0
  1 25  1  0
  1 26  1  0
  1 27  1  0
  2 28  1  0
  3 29  1  0
  3 30  1  0
  3 31  1  0
  4 32  1  0
  4 33  1  0
  5 34  1  0
  6 35  1  0
  6 36  1  0
  7 37  1  0
 10 38  1  0
 10 39  1  0
 11 40  1  0
 11 41  1  0
 14 42  1  0
 15 43  1  0
 16 44  1  0
 17 45  1  0
 21 46  1  0
 22 47  1  0
 23 48  1  0
M  END
>  <Energy>  (835) 
24.13006940926978

>  <compound_id>  (835) 
10597

>  <target_id>  (835) 
1

>  <reference_id>  (835) 
7

>  <inspiration_ids>  (835) 
[80, 7]

>  <energy_score>  (835) 
-38.78802766155843

>  <distance_score>  (835) 
10.220778248549252

>  <path>  (835) 
/opt/xchem-fragalysis-2/maxwin/BulkDock/SCRATCH/511020/C10597-P7/C10597-P7.minimised.mol

>  <scratch_subdir>  (835) 
/opt/xchem-fragalysis-2/maxwin/BulkDock/SCRATCH/511020/C10597-P7

>  <fragmenstein_runtime>  (835) 
19.78173804283142

>  <fragmenstein_outcome>  (835) 
too moved

>  <fragmenstein_mode>  (835) 
expansion

>  <fragmenstein_error>  (835) 


$$$$
C10598-P80
     RDKit          3D

 51 52  0  0  0  0  0  0  0  0999 V2000
    4.4516    1.4896   27.4944 C   0  0  0  0  0  0  0  0  0  0  0  0
    4.4149    0.2170   28.3343 C   0  0  0  0  0  0  0  0  0  0  0  0
    3.3278    0.3129   29.4025 C   0  0  0  0  0  0  0  0  0  0  0  0
    4.3576   -1.0653   27.4727 C   0  0  0  0  0  0  0  0  0  0  0  0
    3.1571   -1.2700   26.5034 C   0  0  0  0  0  0  0  0  0  0  0  0
    3.4375   -2.5206   25.5754 C   0  0  0  0  0  0  0  0  0  0  0  0
    3.9223   -2.3621   24.1810 N   0  0  0  0  0  0  0  0  0  0  0  0
    4.7846   -1.4002   23.5972 C   0  0  0  0  0  0  0  0  0  0  0  0
    5.2472   -0.4549   24.0858 O   0  0  0  0  0  0  0  0  0  0  0  0
    5.5016   -1.6322   21.7623 C   0  0  0  0  0  0  0  0  0  0  0  0
    6.9216   -0.7582   20.5466 C   0  0  0  0  0  0  0  0  0  0  0  0
    6.8231   -0.2023   18.7040 C   0  0  0  0  0  0  0  0  0  0  0  0
    5.9857   -0.7570   17.8074 N   0  0  0  0  0  0  0  0  0  0  0  0
    5.7589    0.1022   16.8036 C   0  0  0  0  0  0  0  0  0  0  0  0
    6.3959    1.3015   17.1156 C   0  0  0  0  0  0  0  0  0  0  0  0
    7.4382    0.8502   17.8959 N   0  0  0  0  0  0  0  0  0  0  0  0
    8.6078    0.7754   16.9905 C   0  0  0  0  0  0  0  0  0  0  0  0
    1.8996   -1.3479   27.2993 N   0  0  0  0  0  0  0  0  0  0  0  0
    1.3825   -2.3858   28.1470 C   0  0  0  0  0  0  0  0  0  0  0  0
    1.7919   -3.4894   28.3702 O   0  0  0  0  0  0  0  0  0  0  0  0
    0.1244   -1.9393   28.8726 C   0  0  0  0  0  0  0  0  0  0  0  0
   -0.5727   -2.6583   29.9016 C   0  0  0  0  0  0  0  0  0  0  0  0
   -1.6249   -1.8643   30.2905 C   0  0  0  0  0  0  0  0  0  0  0  0
   -1.5501   -0.7623   29.4967 N   0  0  0  0  0  0  0  0  0  0  0  0
   -0.4984   -0.7579   28.6523 N   0  0  0  0  0  0  0  0  0  0  0  0
    3.5380    1.6197   26.9068 H   0  0  0  0  0  0  0  0  0  0  0  0
    5.3073    1.4669   26.8145 H   0  0  0  0  0  0  0  0  0  0  0  0
    4.5652    2.3723   28.1331 H   0  0  0  0  0  0  0  0  0  0  0  0
    5.3702    0.1685   28.8759 H   0  0  0  0  0  0  0  0  0  0  0  0
    3.2260   -0.6295   29.9498 H   0  0  0  0  0  0  0  0  0  0  0  0
    2.3575    0.5859   28.9794 H   0  0  0  0  0  0  0  0  0  0  0  0
    3.5843    1.0895   30.1321 H   0  0  0  0  0  0  0  0  0  0  0  0
    4.4148   -1.9277   28.1514 H   0  0  0  0  0  0  0  0  0  0  0  0
    5.2812   -1.0872   26.8783 H   0  0  0  0  0  0  0  0  0  0  0  0
    3.0731   -0.3836   25.8741 H   0  0  0  0  0  0  0  0  0  0  0  0
    2.7274   -3.3134   25.6783 H   0  0  0  0  0  0  0  0  0  0  0  0
    4.2823   -2.9583   26.0650 H   0  0  0  0  0  0  0  0  0  0  0  0
    3.6350   -3.0027   23.4750 H   0  0  0  0  0  0  0  0  0  0  0  0
    5.6511   -2.5598   22.3047 H   0  0  0  0  0  0  0  0  0  0  0  0
    5.4290   -2.5537   21.1019 H   0  0  0  0  0  0  0  0  0  0  0  0
    7.4375   -1.6279   20.2801 H   0  0  0  0  0  0  0  0  0  0  0  0
    7.3985    0.1831   20.7150 H   0  0  0  0  0  0  0  0  0  0  0  0
    4.9907   -0.1169   16.0708 H   0  0  0  0  0  0  0  0  0  0  0  0
    6.3679    2.3011   16.6949 H   0  0  0  0  0  0  0  0  0  0  0  0
    8.7964   -0.2489   16.6867 H   0  0  0  0  0  0  0  0  0  0  0  0
    8.4103    1.3304   16.0661 H   0  0  0  0  0  0  0  0  0  0  0  0
    9.4344    1.3246   17.4094 H   0  0  0  0  0  0  0  0  0  0  0  0
    1.2449   -0.5713   27.2912 H   0  0  0  0  0  0  0  0  0  0  0  0
   -0.2995   -3.6281   30.2943 H   0  0  0  0  0  0  0  0  0  0  0  0
   -2.4008   -1.9924   31.0300 H   0  0  0  0  0  0  0  0  0  0  0  0
   -2.1720    0.0383   29.4766 H   0  0  0  0  0  0  0  0  0  0  0  0
  1  2  1  0
  2  3  1  0
  2  4  1  0
  4  5  1  0
  5  6  1  0
  6  7  1  0
  7  8  1  0
  8  9  2  0
  8 10  1  0
 10 11  1  0
 11 12  1  0
 12 13  2  0
 13 14  1  0
 14 15  2  0
 15 16  1  0
 16 17  1  0
  5 18  1  0
 18 19  1  0
 19 20  2  0
 19 21  1  0
 21 22  1  0
 22 23  2  0
 23 24  1  0
 24 25  1  0
 16 12  1  0
 25 21  2  0
  1 26  1  0
  1 27  1  0
  1 28  1  0
  2 29  1  0
  3 30  1  0
  3 31  1  0
  3 32  1  0
  4 33  1  0
  4 34  1  0
  5 35  1  0
  6 36  1  0
  6 37  1  0
  7 38  1  0
 10 39  1  0
 10 40  1  0
 11 41  1  0
 11 42  1  0
 14 43  1  0
 15 44  1  0
 17 45  1  0
 17 46  1  0
 17 47  1  0
 18 48  1  0
 22 49  1  0
 23 50  1  0
 24 51  1  0
M  END
>  <Energy>  (836) 
354.71341938634907

>  <compound_id>  (836) 
10598

>  <target_id>  (836) 
1

>  <reference_id>  (836) 
80

>  <inspiration_ids>  (836) 
[80, 7]

>  <energy_score>  (836) 
297.5990807070405

>  <distance_score>  (836) 
11.106531141627507

>  <path>  (836) 
/opt/xchem-fragalysis-2/maxwin/BulkDock/SCRATCH/511020/C10598-P80/C10598-P80.minimised.mol

>  <scratch_subdir>  (836) 
/opt/xchem-fragalysis-2/maxwin/BulkDock/SCRATCH/511020/C10598-P80

>  <fragmenstein_runtime>  (836) 
28.99003791809082

>  <fragmenstein_outcome>  (836) 
too moved

>  <fragmenstein_mode>  (836) 
expansion

>  <fragmenstein_error>  (836) 


$$$$
C10598-P7
     RDKit          3D

 51 52  0  0  0  0  0  0  0  0999 V2000
    2.6218    2.0139   29.2198 C   0  0  0  0  0  0  0  0  0  0  0  0
    3.8143    1.4811   28.4295 C   0  0  0  0  0  0  0  0  0  0  0  0
    5.1143    1.9801   29.0694 C   0  0  0  0  0  0  0  0  0  0  0  0
    3.8492   -0.0591   28.3302 C   0  0  0  0  0  0  0  0  0  0  0  0
    2.6840   -0.6941   27.5351 C   0  0  0  0  0  0  0  0  0  0  0  0
    3.1754   -1.9994   26.8278 C   0  0  0  0  0  0  0  0  0  0  0  0
    3.6636   -1.8816   25.4446 N   0  0  0  0  0  0  0  0  0  0  0  0
    4.5359   -0.8977   24.8219 C   0  0  0  0  0  0  0  0  0  0  0  0
    5.0072    0.1008   25.2614 O   0  0  0  0  0  0  0  0  0  0  0  0
    4.8696   -1.4287   23.1186 C   0  0  0  0  0  0  0  0  0  0  0  0
    5.5602   -0.3668   21.4592 C   0  0  0  0  0  0  0  0  0  0  0  0
    7.0535    0.0134   20.1539 C   0  0  0  0  0  0  0  0  0  0  0  0
    7.3014   -0.8840   19.2727 N   0  0  0  0  0  0  0  0  0  0  0  0
    6.4686   -0.4197   18.1472 C   0  0  0  0  0  0  0  0  0  0  0  0
    7.2850    0.4326   17.5607 C   0  0  0  0  0  0  0  0  0  0  0  0
    7.2327    1.1215   18.7588 N   0  0  0  0  0  0  0  0  0  0  0  0
    7.4908    2.5641   18.4245 C   0  0  0  0  0  0  0  0  0  0  0  0
    1.5226   -0.9218   28.4397 N   0  0  0  0  0  0  0  0  0  0  0  0
    0.1861   -0.3862   28.4137 C   0  0  0  0  0  0  0  0  0  0  0  0
   -0.3577    0.3188   27.6123 O   0  0  0  0  0  0  0  0  0  0  0  0
   -0.6045   -0.7537   29.6512 C   0  0  0  0  0  0  0  0  0  0  0  0
   -1.8349   -0.1492   30.0792 C   0  0  0  0  0  0  0  0  0  0  0  0
   -2.1894   -0.7741   31.2513 C   0  0  0  0  0  0  0  0  0  0  0  0
   -1.2140   -1.6982   31.4716 N   0  0  0  0  0  0  0  0  0  0  0  0
   -0.2341   -1.6995   30.5421 N   0  0  0  0  0  0  0  0  0  0  0  0
    2.5274    1.5138   30.1892 H   0  0  0  0  0  0  0  0  0  0  0  0
    1.6915    1.8784   28.6643 H   0  0  0  0  0  0  0  0  0  0  0  0
    2.7232    3.0892   29.4035 H   0  0  0  0  0  0  0  0  0  0  0  0
    3.7662    1.8963   27.4147 H   0  0  0  0  0  0  0  0  0  0  0  0
    5.1355    3.0745   29.1075 H   0  0  0  0  0  0  0  0  0  0  0  0
    5.9847    1.6532   28.4904 H   0  0  0  0  0  0  0  0  0  0  0  0
    5.2241    1.6023   30.0917 H   0  0  0  0  0  0  0  0  0  0  0  0
    4.7970   -0.3254   27.8455 H   0  0  0  0  0  0  0  0  0  0  0  0
    3.8940   -0.4946   29.3374 H   0  0  0  0  0  0  0  0  0  0  0  0
    2.3474    0.0152   26.7769 H   0  0  0  0  0  0  0  0  0  0  0  0
    2.3620   -2.7273   26.8130 H   0  0  0  0  0  0  0  0  0  0  0  0
    3.9843   -2.4558   27.4078 H   0  0  0  0  0  0  0  0  0  0  0  0
    3.5228   -2.6481   24.8056 H   0  0  0  0  0  0  0  0  0  0  0  0
    3.9753   -2.0372   23.1002 H   0  0  0  0  0  0  0  0  0  0  0  0
    5.5633   -2.1912   23.3558 H   0  0  0  0  0  0  0  0  0  0  0  0
    5.8240   -1.4478   21.3563 H   0  0  0  0  0  0  0  0  0  0  0  0
    4.8227    0.4081   21.5282 H   0  0  0  0  0  0  0  0  0  0  0  0
    5.6631   -0.9967   17.7094 H   0  0  0  0  0  0  0  0  0  0  0  0
    7.4656    0.8741   16.5978 H   0  0  0  0  0  0  0  0  0  0  0  0
    8.4640    2.6727   17.9308 H   0  0  0  0  0  0  0  0  0  0  0  0
    7.3721    3.2535   19.2459 H   0  0  0  0  0  0  0  0  0  0  0  0
    6.7732    2.8430   17.6347 H   0  0  0  0  0  0  0  0  0  0  0  0
    1.6119   -1.5505   29.2349 H   0  0  0  0  0  0  0  0  0  0  0  0
   -2.3578    0.6452   29.5654 H   0  0  0  0  0  0  0  0  0  0  0  0
   -3.0245   -0.6550   31.9247 H   0  0  0  0  0  0  0  0  0  0  0  0
   -1.1342   -2.3510   32.2447 H   0  0  0  0  0  0  0  0  0  0  0  0
  1  2  1  0
  2  3  1  0
  2  4  1  0
  4  5  1  0
  5  6  1  0
  6  7  1  0
  7  8  1  0
  8  9  2  0
  8 10  1  0
 10 11  1  0
 11 12  1  0
 12 13  2  0
 13 14  1  0
 14 15  2  0
 15 16  1  0
 16 17  1  0
  5 18  1  0
 18 19  1  0
 19 20  2  0
 19 21  1  0
 21 22  1  0
 22 23  2  0
 23 24  1  0
 24 25  1  0
 16 12  1  0
 25 21  2  0
  1 26  1  0
  1 27  1  0
  1 28  1  0
  2 29  1  0
  3 30  1  0
  3 31  1  0
  3 32  1  0
  4 33  1  0
  4 34  1  0
  5 35  1  0
  6 36  1  0
  6 37  1  0
  7 38  1  0
 10 39  1  0
 10 40  1  0
 11 41  1  0
 11 42  1  0
 14 43  1  0
 15 44  1  0
 17 45  1  0
 17 46  1  0
 17 47  1  0
 18 48  1  0
 22 49  1  0
 23 50  1  0
 24 51  1  0
M  END
>  <Energy>  (837) 
454.39609989402527

>  <compound_id>  (837) 
10598

>  <target_id>  (837) 
1

>  <reference_id>  (837) 
7

>  <inspiration_ids>  (837) 
[80, 7]

>  <energy_score>  (837) 
397.28176121471853

>  <distance_score>  (837) 
10.192867505760518

>  <path>  (837) 
/opt/xchem-fragalysis-2/maxwin/BulkDock/SCRATCH/511020/C10598-P7/C10598-P7.minimised.mol

>  <scratch_subdir>  (837) 
/opt/xchem-fragalysis-2/maxwin/BulkDock/SCRATCH/511020/C10598-P7

>  <fragmenstein_runtime>  (837) 
21.660577058792114

>  <fragmenstein_outcome>  (837) 
too moved

>  <fragmenstein_mode>  (837) 
expansion

>  <fragmenstein_error>  (837) 


$$$$
C10599-P80
     RDKit          3D

 46 48  0  0  0  0  0  0  0  0999 V2000
    5.4893   -1.5347   25.3690 C   0  0  0  0  0  0  0  0  0  0  0  0
    5.3783   -2.1428   23.9217 C   0  0  0  0  0  0  0  0  0  0  0  0
    3.8531   -2.5644   24.2357 C   0  0  0  0  0  0  0  0  0  0  0  0
    6.6634   -3.4866   23.0684 C   0  0  0  0  0  0  0  0  0  0  0  0
    8.3354   -3.5000   21.7629 C   0  0  0  0  0  0  0  0  0  0  0  0
    7.7321   -4.4326   23.5241 C   0  0  0  0  0  0  0  0  0  0  0  0
    7.3896   -5.6324   23.4135 O   0  0  0  0  0  0  0  0  0  0  0  0
    7.9318   -3.2953   25.1350 N   0  0  0  0  0  0  0  0  0  0  0  0
    7.8091   -3.6781   26.9330 C   0  0  0  0  0  0  0  0  0  0  0  0
    8.8572   -2.7816   27.6790 C   0  0  0  0  0  0  0  0  0  0  0  0
    8.5026   -2.8700   29.2102 C   0  0  0  0  0  0  0  0  0  0  0  0
    7.0716   -2.8615   29.3045 N   0  0  0  0  0  0  0  0  0  0  0  0
    6.1832   -2.6163   30.4147 C   0  0  0  0  0  0  0  0  0  0  0  0
    4.7300   -2.5912   30.4339 C   0  0  0  0  0  0  0  0  0  0  0  0
    4.3319   -2.3365   31.7245 C   0  0  0  0  0  0  0  0  0  0  0  0
    5.4930   -2.2187   32.4132 N   0  0  0  0  0  0  0  0  0  0  0  0
    6.6104   -2.3880   31.6680 N   0  0  0  0  0  0  0  0  0  0  0  0
    6.5633   -3.1238   28.0414 C   0  0  0  0  0  0  0  0  0  0  0  0
    5.3596   -2.9776   27.8751 O   0  0  0  0  0  0  0  0  0  0  0  0
   10.5472   -3.1822   21.8496 N   0  0  0  0  0  0  0  0  0  0  0  0
   11.5520   -3.1127   23.2308 C   0  0  0  0  0  0  0  0  0  0  0  0
   12.8555   -3.3931   22.8989 C   0  0  0  0  0  0  0  0  0  0  0  0
   12.9838   -3.9069   21.6661 N   0  0  0  0  0  0  0  0  0  0  0  0
   11.7713   -4.0757   21.2133 C   0  0  0  0  0  0  0  0  0  0  0  0
    5.0698   -0.5166   25.3682 H   0  0  0  0  0  0  0  0  0  0  0  0
    4.8121   -1.9752   26.1010 H   0  0  0  0  0  0  0  0  0  0  0  0
    6.4641   -1.5625   25.8508 H   0  0  0  0  0  0  0  0  0  0  0  0
    5.1406   -1.4423   23.1466 H   0  0  0  0  0  0  0  0  0  0  0  0
    3.8024   -3.3536   24.9833 H   0  0  0  0  0  0  0  0  0  0  0  0
    3.3094   -1.7255   24.6864 H   0  0  0  0  0  0  0  0  0  0  0  0
    3.2603   -2.8439   23.3743 H   0  0  0  0  0  0  0  0  0  0  0  0
    5.9014   -3.1781   22.1437 H   0  0  0  0  0  0  0  0  0  0  0  0
    6.3550   -3.8777   24.1205 H   0  0  0  0  0  0  0  0  0  0  0  0
    8.1981   -4.2467   20.9252 H   0  0  0  0  0  0  0  0  0  0  0  0
    8.3044   -2.3983   24.9104 H   0  0  0  0  0  0  0  0  0  0  0  0
    8.1551   -4.6889   27.1851 H   0  0  0  0  0  0  0  0  0  0  0  0
    9.8842   -3.1050   27.4839 H   0  0  0  0  0  0  0  0  0  0  0  0
    8.7576   -1.7435   27.3375 H   0  0  0  0  0  0  0  0  0  0  0  0
    8.8728   -3.8090   29.6351 H   0  0  0  0  0  0  0  0  0  0  0  0
    8.9280   -2.0235   29.7573 H   0  0  0  0  0  0  0  0  0  0  0  0
    4.0514   -2.7366   29.6057 H   0  0  0  0  0  0  0  0  0  0  0  0
    3.3617   -2.2274   32.1855 H   0  0  0  0  0  0  0  0  0  0  0  0
    5.6133   -2.0218   33.4005 H   0  0  0  0  0  0  0  0  0  0  0  0
   11.1444   -2.6350   24.1104 H   0  0  0  0  0  0  0  0  0  0  0  0
   13.7192   -3.2291   23.5281 H   0  0  0  0  0  0  0  0  0  0  0  0
   11.5410   -4.8945   20.5453 H   0  0  0  0  0  0  0  0  0  0  0  0
  1  2  1  0
  2  3  1  0
  2  4  1  0
  4  5  1  0
  5  6  1  0
  6  7  2  0
  6  8  1  0
  8  9  1  0
  9 10  1  0
 10 11  1  0
 11 12  1  0
 12 13  1  0
 13 14  1  0
 14 15  2  0
 15 16  1  0
 16 17  1  0
 12 18  1  0
 18 19  2  0
  5 20  1  0
 20 21  1  0
 21 22  2  0
 22 23  1  0
 23 24  2  0
 18  9  1  0
 24 20  1  0
 17 13  2  0
  1 25  1  0
  1 26  1  0
  1 27  1  0
  2 28  1  0
  3 29  1  0
  3 30  1  0
  3 31  1  0
  4 32  1  0
  4 33  1  0
  5 34  1  0
  8 35  1  0
  9 36  1  0
 10 37  1  0
 10 38  1  0
 11 39  1  0
 11 40  1  0
 14 41  1  0
 15 42  1  0
 16 43  1  0
 21 44  1  0
 22 45  1  0
 24 46  1  0
M  END
>  <Energy>  (838) 
1016.0197782473919

>  <compound_id>  (838) 
10599

>  <target_id>  (838) 
1

>  <reference_id>  (838) 
80

>  <inspiration_ids>  (838) 
[80, 7]

>  <energy_score>  (838) 
961.3879038299422

>  <distance_score>  (838) 
14.35269759677457

>  <path>  (838) 
/opt/xchem-fragalysis-2/maxwin/BulkDock/SCRATCH/511020/C10599-P80/C10599-P80.minimised.mol

>  <scratch_subdir>  (838) 
/opt/xchem-fragalysis-2/maxwin/BulkDock/SCRATCH/511020/C10599-P80

>  <fragmenstein_runtime>  (838) 
11.114994287490845

>  <fragmenstein_outcome>  (838) 
too moved

>  <fragmenstein_mode>  (838) 
expansion

>  <fragmenstein_error>  (838) 


$$$$
C10599-P7
     RDKit          3D

 46 48  0  0  0  0  0  0  0  0999 V2000
    5.0982    6.0916   24.5521 C   0  0  0  0  0  0  0  0  0  0  0  0
    4.2838    7.0665   23.7011 C   0  0  0  0  0  0  0  0  0  0  0  0
    4.6122    8.5040   24.1201 C   0  0  0  0  0  0  0  0  0  0  0  0
    4.5547    6.8946   22.1907 C   0  0  0  0  0  0  0  0  0  0  0  0
    4.1605    5.5224   21.5627 C   0  0  0  0  0  0  0  0  0  0  0  0
    2.5894    5.4428   21.6149 C   0  0  0  0  0  0  0  0  0  0  0  0
    1.9680    5.9809   20.7411 O   0  0  0  0  0  0  0  0  0  0  0  0
    2.1357    4.7733   22.8286 N   0  0  0  0  0  0  0  0  0  0  0  0
    0.8025    4.6363   23.4024 C   0  0  0  0  0  0  0  0  0  0  0  0
   -0.2755    4.0983   22.4785 C   0  0  0  0  0  0  0  0  0  0  0  0
   -1.4204    3.8389   23.4513 C   0  0  0  0  0  0  0  0  0  0  0  0
   -0.7757    3.3896   24.6703 N   0  0  0  0  0  0  0  0  0  0  0  0
   -1.4799    2.8993   25.7795 C   0  0  0  0  0  0  0  0  0  0  0  0
   -0.9945    2.4066   27.0193 C   0  0  0  0  0  0  0  0  0  0  0  0
   -2.1087    2.0633   27.7517 C   0  0  0  0  0  0  0  0  0  0  0  0
   -3.1654    2.4867   27.0055 N   0  0  0  0  0  0  0  0  0  0  0  0
   -2.8162    2.8133   25.7527 N   0  0  0  0  0  0  0  0  0  0  0  0
    0.5857    3.7602   24.6665 C   0  0  0  0  0  0  0  0  0  0  0  0
    1.4454    3.5233   25.5020 O   0  0  0  0  0  0  0  0  0  0  0  0
    4.8049    5.3926   20.2221 N   0  0  0  0  0  0  0  0  0  0  0  0
    6.1654    5.5100   19.9884 C   0  0  0  0  0  0  0  0  0  0  0  0
    6.3416    5.2917   18.6420 C   0  0  0  0  0  0  0  0  0  0  0  0
    5.1441    5.0070   18.0479 N   0  0  0  0  0  0  0  0  0  0  0  0
    4.2433    5.0924   19.0097 C   0  0  0  0  0  0  0  0  0  0  0  0
    6.1696    6.1808   24.3429 H   0  0  0  0  0  0  0  0  0  0  0  0
    4.9460    6.2876   25.6191 H   0  0  0  0  0  0  0  0  0  0  0  0
    4.8026    5.0558   24.3709 H   0  0  0  0  0  0  0  0  0  0  0  0
    3.2202    6.9098   23.9079 H   0  0  0  0  0  0  0  0  0  0  0  0
    4.3941    8.6591   25.1821 H   0  0  0  0  0  0  0  0  0  0  0  0
    4.0133    9.2219   23.5497 H   0  0  0  0  0  0  0  0  0  0  0  0
    5.6699    8.7359   23.9542 H   0  0  0  0  0  0  0  0  0  0  0  0
    4.0210    7.6870   21.6467 H   0  0  0  0  0  0  0  0  0  0  0  0
    5.6196    7.0987   22.0288 H   0  0  0  0  0  0  0  0  0  0  0  0
    4.5965    4.7056   22.1426 H   0  0  0  0  0  0  0  0  0  0  0  0
    2.9346    4.3592   23.2979 H   0  0  0  0  0  0  0  0  0  0  0  0
    0.5278    5.6581   23.7002 H   0  0  0  0  0  0  0  0  0  0  0  0
   -0.5557    4.7983   21.6860 H   0  0  0  0  0  0  0  0  0  0  0  0
    0.0523    3.1651   22.0073 H   0  0  0  0  0  0  0  0  0  0  0  0
   -1.9731    4.7607   23.6663 H   0  0  0  0  0  0  0  0  0  0  0  0
   -2.1045    3.0766   23.0669 H   0  0  0  0  0  0  0  0  0  0  0  0
    0.0373    2.3048   27.3271 H   0  0  0  0  0  0  0  0  0  0  0  0
   -2.2293    1.6439   28.7376 H   0  0  0  0  0  0  0  0  0  0  0  0
   -4.1410    2.5893   27.2769 H   0  0  0  0  0  0  0  0  0  0  0  0
    6.8573    5.7540   20.7789 H   0  0  0  0  0  0  0  0  0  0  0  0
    7.2613    5.3147   18.0725 H   0  0  0  0  0  0  0  0  0  0  0  0
    3.1813    4.9293   18.8750 H   0  0  0  0  0  0  0  0  0  0  0  0
  1  2  1  0
  2  3  1  0
  2  4  1  0
  4  5  1  0
  5  6  1  0
  6  7  2  0
  6  8  1  0
  8  9  1  0
  9 10  1  0
 10 11  1  0
 11 12  1  0
 12 13  1  0
 13 14  1  0
 14 15  2  0
 15 16  1  0
 16 17  1  0
 12 18  1  0
 18 19  2  0
  5 20  1  0
 20 21  1  0
 21 22  2  0
 22 23  1  0
 23 24  2  0
 18  9  1  0
 24 20  1  0
 17 13  2  0
  1 25  1  0
  1 26  1  0
  1 27  1  0
  2 28  1  0
  3 29  1  0
  3 30  1  0
  3 31  1  0
  4 32  1  0
  4 33  1  0
  5 34  1  0
  8 35  1  0
  9 36  1  0
 10 37  1  0
 10 38  1  0
 11 39  1  0
 11 40  1  0
 14 41  1  0
 15 42  1  0
 16 43  1  0
 21 44  1  0
 22 45  1  0
 24 46  1  0
M  END
>  <Energy>  (839) 
19.257547036176792

>  <compound_id>  (839) 
10599

>  <target_id>  (839) 
1

>  <reference_id>  (839) 
7

>  <inspiration_ids>  (839) 
[80, 7]

>  <energy_score>  (839) 
-35.37432738128169

>  <distance_score>  (839) 
13.098067503525442

>  <path>  (839) 
/opt/xchem-fragalysis-2/maxwin/BulkDock/SCRATCH/511020/C10599-P7/C10599-P7.minimised.mol

>  <scratch_subdir>  (839) 
/opt/xchem-fragalysis-2/maxwin/BulkDock/SCRATCH/511020/C10599-P7

>  <fragmenstein_runtime>  (839) 
19.250210762023926

>  <fragmenstein_outcome>  (839) 
too moved

>  <fragmenstein_mode>  (839) 
expansion

>  <fragmenstein_error>  (839) 


$$$$
C10600-P80
     RDKit          3D

 39 40  0  0  0  0  0  0  0  0999 V2000
    3.3808    1.4312   28.6365 C   0  0  0  0  0  0  0  0  0  0  0  0
    2.1500    0.5336   28.6376 C   0  0  0  0  0  0  0  0  0  0  0  0
    2.4714   -0.9694   28.5056 C   0  0  0  0  0  0  0  0  0  0  0  0
    1.1709   -1.8221   28.6254 C   0  0  0  0  0  0  0  0  0  0  0  0
    0.3229   -1.5917   29.7948 N   0  0  0  0  0  0  0  0  0  0  0  0
   -0.8801   -0.8231   29.9485 C   0  0  0  0  0  0  0  0  0  0  0  0
   -1.4541   -0.1102   29.1789 O   0  0  0  0  0  0  0  0  0  0  0  0
   -1.4735   -0.9745   31.3229 C   0  0  0  0  0  0  0  0  0  0  0  0
   -2.6421   -0.3160   31.8202 C   0  0  0  0  0  0  0  0  0  0  0  0
   -2.8036   -0.7340   33.1182 C   0  0  0  0  0  0  0  0  0  0  0  0
   -1.7416   -1.5527   33.3587 N   0  0  0  0  0  0  0  0  0  0  0  0
   -0.9692   -1.7827   32.2781 N   0  0  0  0  0  0  0  0  0  0  0  0
    3.1697   -1.2220   27.2321 N   0  0  0  0  0  0  0  0  0  0  0  0
    4.5958   -1.1890   26.8963 C   0  0  0  0  0  0  0  0  0  0  0  0
    5.5599   -1.0259   27.5933 O   0  0  0  0  0  0  0  0  0  0  0  0
    4.7174   -1.2997   25.3569 C   0  0  0  0  0  0  0  0  0  0  0  0
    6.0867   -1.2264   24.7188 C   0  0  0  0  0  0  0  0  0  0  0  0
    6.4528   -1.1958   23.3856 C   0  0  0  0  0  0  0  0  0  0  0  0
    7.8088   -1.0774   23.2422 N   0  0  0  0  0  0  0  0  0  0  0  0
    8.2786   -1.0502   24.4694 C   0  0  0  0  0  0  0  0  0  0  0  0
    7.2783   -1.1593   25.3934 N   0  0  0  0  0  0  0  0  0  0  0  0
    3.0906    2.4632   28.8593 H   0  0  0  0  0  0  0  0  0  0  0  0
    3.8749    1.4351   27.6607 H   0  0  0  0  0  0  0  0  0  0  0  0
    4.1027    1.1117   29.3945 H   0  0  0  0  0  0  0  0  0  0  0  0
    1.4840    0.8463   27.8238 H   0  0  0  0  0  0  0  0  0  0  0  0
    1.6158    0.7137   29.5774 H   0  0  0  0  0  0  0  0  0  0  0  0
    3.1597   -1.2508   29.3116 H   0  0  0  0  0  0  0  0  0  0  0  0
    1.4308   -2.8865   28.6247 H   0  0  0  0  0  0  0  0  0  0  0  0
    0.5437   -1.6387   27.7466 H   0  0  0  0  0  0  0  0  0  0  0  0
    0.5616   -2.0158   30.6895 H   0  0  0  0  0  0  0  0  0  0  0  0
   -3.2479    0.3828   31.2662 H   0  0  0  0  0  0  0  0  0  0  0  0
   -3.5256   -0.4842   33.8829 H   0  0  0  0  0  0  0  0  0  0  0  0
   -1.4742   -1.9986   34.2316 H   0  0  0  0  0  0  0  0  0  0  0  0
    2.6349   -1.4667   26.3962 H   0  0  0  0  0  0  0  0  0  0  0  0
    4.1573   -0.4345   25.0016 H   0  0  0  0  0  0  0  0  0  0  0  0
    4.2096   -2.2113   25.0245 H   0  0  0  0  0  0  0  0  0  0  0  0
    5.7887   -1.2085   22.5328 H   0  0  0  0  0  0  0  0  0  0  0  0
    9.3190   -0.9608   24.7539 H   0  0  0  0  0  0  0  0  0  0  0  0
    7.3704   -1.1811   26.4034 H   0  0  0  0  0  0  0  0  0  0  0  0
  1  2  1  0
  2  3  1  0
  3  4  1  0
  4  5  1  0
  5  6  1  0
  6  7  2  0
  6  8  1  0
  8  9  1  0
  9 10  2  0
 10 11  1  0
 11 12  1  0
  3 13  1  0
 13 14  1  0
 14 15  2  0
 14 16  1  0
 16 17  1  0
 17 18  2  0
 18 19  1  0
 19 20  2  0
 20 21  1  0
 12  8  2  0
 21 17  1  0
  1 22  1  0
  1 23  1  0
  1 24  1  0
  2 25  1  0
  2 26  1  0
  3 27  1  0
  4 28  1  0
  4 29  1  0
  5 30  1  0
  9 31  1  0
 10 32  1  0
 11 33  1  0
 13 34  1  0
 16 35  1  0
 16 36  1  0
 18 37  1  0
 20 38  1  0
 21 39  1  0
M  END
>  <Energy>  (840) 
51.844188578003589

>  <compound_id>  (840) 
10600

>  <target_id>  (840) 
1

>  <reference_id>  (840) 
80

>  <inspiration_ids>  (840) 
[80, 7]

>  <energy_score>  (840) 
-26.620751635555962

>  <distance_score>  (840) 
10.793244481781473

>  <path>  (840) 
/opt/xchem-fragalysis-2/maxwin/BulkDock/SCRATCH/511020/C10600-P80/C10600-P80.minimised.mol

>  <scratch_subdir>  (840) 
/opt/xchem-fragalysis-2/maxwin/BulkDock/SCRATCH/511020/C10600-P80

>  <fragmenstein_runtime>  (840) 
10.470212459564209

>  <fragmenstein_outcome>  (840) 
too moved

>  <fragmenstein_mode>  (840) 
expansion

>  <fragmenstein_error>  (840) 


$$$$
C10600-P7
     RDKit          3D

 39 40  0  0  0  0  0  0  0  0999 V2000
    3.1079   -2.5815   26.2831 C   0  0  0  0  0  0  0  0  0  0  0  0
    1.9806   -3.4205   26.9164 C   0  0  0  0  0  0  0  0  0  0  0  0
    1.6364   -5.2105   26.3521 C   0  0  0  0  0  0  0  0  0  0  0  0
    0.1529   -5.8989   26.8908 C   0  0  0  0  0  0  0  0  0  0  0  0
   -0.3931   -5.0677   28.0208 N   0  0  0  0  0  0  0  0  0  0  0  0
   -0.0196   -5.0038   29.4178 C   0  0  0  0  0  0  0  0  0  0  0  0
    0.7659   -5.6537   30.0462 O   0  0  0  0  0  0  0  0  0  0  0  0
   -0.7512   -3.9026   30.1575 C   0  0  0  0  0  0  0  0  0  0  0  0
   -0.9179   -3.7675   31.5759 C   0  0  0  0  0  0  0  0  0  0  0  0
   -1.6750   -2.6345   31.7698 C   0  0  0  0  0  0  0  0  0  0  0  0
   -1.8972   -2.1362   30.5244 N   0  0  0  0  0  0  0  0  0  0  0  0
   -1.4192   -2.9106   29.5362 N   0  0  0  0  0  0  0  0  0  0  0  0
    3.1415   -5.9422   25.2409 N   0  0  0  0  0  0  0  0  0  0  0  0
    3.3857   -7.5830   24.4147 C   0  0  0  0  0  0  0  0  0  0  0  0
    2.6001   -8.5569   24.3041 O   0  0  0  0  0  0  0  0  0  0  0  0
    4.8980   -8.0013   23.7990 C   0  0  0  0  0  0  0  0  0  0  0  0
    6.2379   -7.5426   23.2300 C   0  0  0  0  0  0  0  0  0  0  0  0
    6.8387   -7.9126   22.0160 C   0  0  0  0  0  0  0  0  0  0  0  0
    8.0640   -7.3270   21.8227 N   0  0  0  0  0  0  0  0  0  0  0  0
    8.3418   -6.7991   22.9872 C   0  0  0  0  0  0  0  0  0  0  0  0
    7.3381   -7.0461   23.8896 N   0  0  0  0  0  0  0  0  0  0  0  0
    2.8140   -1.5273   26.2451 H   0  0  0  0  0  0  0  0  0  0  0  0
    3.3854   -2.9034   25.2774 H   0  0  0  0  0  0  0  0  0  0  0  0
    3.9989   -2.6129   26.9162 H   0  0  0  0  0  0  0  0  0  0  0  0
    1.0399   -2.8704   27.0414 H   0  0  0  0  0  0  0  0  0  0  0  0
    2.2880   -3.4418   27.9902 H   0  0  0  0  0  0  0  0  0  0  0  0
    1.8734   -4.9498   27.3677 H   0  0  0  0  0  0  0  0  0  0  0  0
    0.2704   -6.9038   27.3119 H   0  0  0  0  0  0  0  0  0  0  0  0
   -0.5837   -6.0031   26.0937 H   0  0  0  0  0  0  0  0  0  0  0  0
   -1.0390   -4.2986   27.8125 H   0  0  0  0  0  0  0  0  0  0  0  0
   -0.5104   -4.4244   32.3339 H   0  0  0  0  0  0  0  0  0  0  0  0
   -2.0050   -2.1182   32.6585 H   0  0  0  0  0  0  0  0  0  0  0  0
   -2.3514   -1.2669   30.2651 H   0  0  0  0  0  0  0  0  0  0  0  0
    3.9678   -5.3189   25.0752 H   0  0  0  0  0  0  0  0  0  0  0  0
    5.2458   -8.5942   24.6669 H   0  0  0  0  0  0  0  0  0  0  0  0
    4.6026   -8.7890   23.0810 H   0  0  0  0  0  0  0  0  0  0  0  0
    6.3977   -8.5311   21.2426 H   0  0  0  0  0  0  0  0  0  0  0  0
    9.2632   -6.3010   23.2604 H   0  0  0  0  0  0  0  0  0  0  0  0
    7.4644   -7.0231   24.8861 H   0  0  0  0  0  0  0  0  0  0  0  0
  1  2  1  0
  2  3  1  0
  3  4  1  0
  4  5  1  0
  5  6  1  0
  6  7  2  0
  6  8  1  0
  8  9  1  0
  9 10  2  0
 10 11  1  0
 11 12  1  0
  3 13  1  0
 13 14  1  0
 14 15  2  0
 14 16  1  0
 16 17  1  0
 17 18  2  0
 18 19  1  0
 19 20  2  0
 20 21  1  0
 12  8  2  0
 21 17  1  0
  1 22  1  0
  1 23  1  0
  1 24  1  0
  2 25  1  0
  2 26  1  0
  3 27  1  0
  4 28  1  0
  4 29  1  0
  5 30  1  0
  9 31  1  0
 10 32  1  0
 11 33  1  0
 13 34  1  0
 16 35  1  0
 16 36  1  0
 18 37  1  0
 20 38  1  0
 21 39  1  0
M  END
>  <Energy>  (841) 
369.74409623641031

>  <compound_id>  (841) 
10600

>  <target_id>  (841) 
1

>  <reference_id>  (841) 
7

>  <inspiration_ids>  (841) 
[80, 7]

>  <energy_score>  (841) 
291.279156022857

>  <distance_score>  (841) 
11.829471681426705

>  <path>  (841) 
/opt/xchem-fragalysis-2/maxwin/BulkDock/SCRATCH/511020/C10600-P7/C10600-P7.minimised.mol

>  <scratch_subdir>  (841) 
/opt/xchem-fragalysis-2/maxwin/BulkDock/SCRATCH/511020/C10600-P7

>  <fragmenstein_runtime>  (841) 
10.14061427116394

>  <fragmenstein_outcome>  (841) 
too moved

>  <fragmenstein_mode>  (841) 
expansion

>  <fragmenstein_error>  (841) 


$$$$
C10601-P80
     RDKit          3D

 46 47  0  0  0  0  0  0  0  0999 V2000
    2.8357    0.3828   30.1482 C   0  0  0  0  0  0  0  0  0  0  0  0
    2.5114   -1.0217   29.6000 C   0  0  0  0  0  0  0  0  0  0  0  0
    1.3129   -1.1727   28.6771 N   0  0  0  0  0  0  0  0  0  0  0  0
    2.3972   -0.9217   27.5921 C   0  0  0  0  0  0  0  0  0  0  0  0
    3.1204   -2.1424   26.9404 C   0  0  0  0  0  0  0  0  0  0  0  0
    3.5298   -2.0129   25.5276 N   0  0  0  0  0  0  0  0  0  0  0  0
    4.8489   -1.8427   24.9263 C   0  0  0  0  0  0  0  0  0  0  0  0
    5.9150   -1.6865   25.4342 O   0  0  0  0  0  0  0  0  0  0  0  0
    4.7809   -1.9979   23.1514 C   0  0  0  0  0  0  0  0  0  0  0  0
    5.5555   -2.3325   21.6139 O   0  0  0  0  0  0  0  0  0  0  0  0
    5.2922   -3.0896   20.0144 C   0  0  0  0  0  0  0  0  0  0  0  0
    4.6287   -2.2061   18.3004 C   0  0  0  0  0  0  0  0  0  0  0  0
    3.6851   -2.7853   17.4935 N   0  0  0  0  0  0  0  0  0  0  0  0
    3.3272   -1.9353   16.4915 C   0  0  0  0  0  0  0  0  0  0  0  0
    4.0854   -0.8073   16.5290 C   0  0  0  0  0  0  0  0  0  0  0  0
    4.9891   -0.9728   17.5611 N   0  0  0  0  0  0  0  0  0  0  0  0
    6.0936   -0.0411   17.6533 C   0  0  0  0  0  0  0  0  0  0  0  0
    0.2245   -0.3358   29.1336 C   0  0  0  0  0  0  0  0  0  0  0  0
   -0.0585    0.8006   28.8502 O   0  0  0  0  0  0  0  0  0  0  0  0
   -0.6967   -0.9821   30.1607 C   0  0  0  0  0  0  0  0  0  0  0  0
   -1.8425   -0.3345   30.7538 C   0  0  0  0  0  0  0  0  0  0  0  0
   -2.3809   -1.2263   31.6498 C   0  0  0  0  0  0  0  0  0  0  0  0
   -1.5951   -2.3332   31.5587 N   0  0  0  0  0  0  0  0  0  0  0  0
   -0.5693   -2.2156   30.6925 N   0  0  0  0  0  0  0  0  0  0  0  0
    3.7257    0.3278   30.7841 H   0  0  0  0  0  0  0  0  0  0  0  0
    2.0198    0.7616   30.7727 H   0  0  0  0  0  0  0  0  0  0  0  0
    3.0259    1.1245   29.3687 H   0  0  0  0  0  0  0  0  0  0  0  0
    2.1778   -1.5704   30.4956 H   0  0  0  0  0  0  0  0  0  0  0  0
    3.4175   -1.5936   29.3513 H   0  0  0  0  0  0  0  0  0  0  0  0
    1.7401   -0.5510   26.8070 H   0  0  0  0  0  0  0  0  0  0  0  0
    3.0522   -0.0454   27.7016 H   0  0  0  0  0  0  0  0  0  0  0  0
    4.0283   -2.3791   27.5030 H   0  0  0  0  0  0  0  0  0  0  0  0
    2.4622   -3.0126   27.0005 H   0  0  0  0  0  0  0  0  0  0  0  0
    2.8501   -2.2056   24.7924 H   0  0  0  0  0  0  0  0  0  0  0  0
    3.7932   -2.4913   23.1883 H   0  0  0  0  0  0  0  0  0  0  0  0
    4.7773   -0.9643   22.9726 H   0  0  0  0  0  0  0  0  0  0  0  0
    4.6292   -3.8037   20.4593 H   0  0  0  0  0  0  0  0  0  0  0  0
    5.8924   -3.9734   19.7816 H   0  0  0  0  0  0  0  0  0  0  0  0
    2.5438   -2.1917   15.7915 H   0  0  0  0  0  0  0  0  0  0  0  0
    4.0942    0.0639   15.8927 H   0  0  0  0  0  0  0  0  0  0  0  0
    6.6620   -0.1143   18.5758 H   0  0  0  0  0  0  0  0  0  0  0  0
    6.7616   -0.2354   16.8109 H   0  0  0  0  0  0  0  0  0  0  0  0
    5.7057    0.9741   17.5381 H   0  0  0  0  0  0  0  0  0  0  0  0
   -2.1917    0.6619   30.5222 H   0  0  0  0  0  0  0  0  0  0  0  0
   -3.2308   -1.1788   32.3137 H   0  0  0  0  0  0  0  0  0  0  0  0
   -1.6819   -3.2060   32.0682 H   0  0  0  0  0  0  0  0  0  0  0  0
  1  2  1  0
  2  3  1  0
  3  4  1  0
  4  5  1  0
  5  6  1  0
  6  7  1  0
  7  8  2  0
  7  9  1  0
  9 10  1  0
 10 11  1  0
 11 12  1  0
 12 13  2  0
 13 14  1  0
 14 15  2  0
 15 16  1  0
 16 17  1  0
  3 18  1  0
 18 19  2  0
 18 20  1  0
 20 21  1  0
 21 22  2  0
 22 23  1  0
 23 24  1  0
 16 12  1  0
 24 20  2  0
  1 25  1  0
  1 26  1  0
  1 27  1  0
  2 28  1  0
  2 29  1  0
  4 30  1  0
  4 31  1  0
  5 32  1  0
  5 33  1  0
  6 34  1  0
  9 35  1  0
  9 36  1  0
 11 37  1  0
 11 38  1  0
 14 39  1  0
 15 40  1  0
 17 41  1  0
 17 42  1  0
 17 43  1  0
 21 44  1  0
 22 45  1  0
 23 46  1  0
M  END
>  <Energy>  (842) 
434.50775589706205

>  <compound_id>  (842) 
10601

>  <target_id>  (842) 
1

>  <reference_id>  (842) 
80

>  <inspiration_ids>  (842) 
[80, 7]

>  <energy_score>  (842) 
315.76233190057474

>  <distance_score>  (842) 
10.622832110417676

>  <path>  (842) 
/opt/xchem-fragalysis-2/maxwin/BulkDock/SCRATCH/511020/C10601-P80/C10601-P80.minimised.mol

>  <scratch_subdir>  (842) 
/opt/xchem-fragalysis-2/maxwin/BulkDock/SCRATCH/511020/C10601-P80

>  <fragmenstein_runtime>  (842) 
15.237571001052856

>  <fragmenstein_outcome>  (842) 
too moved

>  <fragmenstein_mode>  (842) 
expansion

>  <fragmenstein_error>  (842) 


$$$$
C10601-P7
     RDKit          3D

 46 47  0  0  0  0  0  0  0  0999 V2000
    0.4428   -4.1346   28.7567 C   0  0  0  0  0  0  0  0  0  0  0  0
    1.4615   -3.1295   29.3013 C   0  0  0  0  0  0  0  0  0  0  0  0
    1.1829   -1.7241   28.7712 N   0  0  0  0  0  0  0  0  0  0  0  0
    2.4148   -2.0719   27.8450 C   0  0  0  0  0  0  0  0  0  0  0  0
    2.8211   -0.8793   26.9113 C   0  0  0  0  0  0  0  0  0  0  0  0
    3.3803   -1.1996   25.5722 N   0  0  0  0  0  0  0  0  0  0  0  0
    4.7475   -1.2296   25.0970 C   0  0  0  0  0  0  0  0  0  0  0  0
    5.7752   -1.0810   25.6857 O   0  0  0  0  0  0  0  0  0  0  0  0
    4.8614   -1.6306   23.3168 C   0  0  0  0  0  0  0  0  0  0  0  0
    5.5688   -1.5805   21.6561 O   0  0  0  0  0  0  0  0  0  0  0  0
    6.6497   -0.4334   20.6153 C   0  0  0  0  0  0  0  0  0  0  0  0
    6.8519    0.0886   18.7812 C   0  0  0  0  0  0  0  0  0  0  0  0
    7.2388    1.3528   18.4098 N   0  0  0  0  0  0  0  0  0  0  0  0
    6.3979    1.7857   17.3823 C   0  0  0  0  0  0  0  0  0  0  0  0
    5.5284    0.7540   17.1186 C   0  0  0  0  0  0  0  0  0  0  0  0
    6.3968   -0.2814   17.4459 N   0  0  0  0  0  0  0  0  0  0  0  0
    7.4450   -0.4586   16.3144 C   0  0  0  0  0  0  0  0  0  0  0  0
    1.0632   -0.7970   29.8688 C   0  0  0  0  0  0  0  0  0  0  0  0
    1.8963   -0.1201   30.4135 O   0  0  0  0  0  0  0  0  0  0  0  0
   -0.3420   -0.7659   30.4836 C   0  0  0  0  0  0  0  0  0  0  0  0
   -0.8262    0.1906   31.4444 C   0  0  0  0  0  0  0  0  0  0  0  0
   -2.0672   -0.2452   31.8502 C   0  0  0  0  0  0  0  0  0  0  0  0
   -2.2758   -1.4000   31.1655 N   0  0  0  0  0  0  0  0  0  0  0  0
   -1.2855   -1.7211   30.3173 N   0  0  0  0  0  0  0  0  0  0  0  0
    0.6492   -4.3926   27.7189 H   0  0  0  0  0  0  0  0  0  0  0  0
   -0.5769   -3.7442   28.7985 H   0  0  0  0  0  0  0  0  0  0  0  0
    0.4708   -5.0551   29.3483 H   0  0  0  0  0  0  0  0  0  0  0  0
    2.4764   -3.5568   29.3448 H   0  0  0  0  0  0  0  0  0  0  0  0
    1.2335   -3.0794   30.3781 H   0  0  0  0  0  0  0  0  0  0  0  0
    2.1854   -2.9160   27.1873 H   0  0  0  0  0  0  0  0  0  0  0  0
    3.3342   -2.2138   28.4356 H   0  0  0  0  0  0  0  0  0  0  0  0
    1.9693   -0.2131   26.7892 H   0  0  0  0  0  0  0  0  0  0  0  0
    3.5881   -0.2890   27.4281 H   0  0  0  0  0  0  0  0  0  0  0  0
    2.7595   -1.4496   24.8088 H   0  0  0  0  0  0  0  0  0  0  0  0
    5.5958   -2.3275   23.6348 H   0  0  0  0  0  0  0  0  0  0  0  0
    3.9696   -2.2644   23.2710 H   0  0  0  0  0  0  0  0  0  0  0  0
    7.5880   -0.8648   20.6691 H   0  0  0  0  0  0  0  0  0  0  0  0
    6.2363    0.3987   21.1695 H   0  0  0  0  0  0  0  0  0  0  0  0
    6.4065    2.8073   17.0215 H   0  0  0  0  0  0  0  0  0  0  0  0
    4.6651    0.6181   16.4815 H   0  0  0  0  0  0  0  0  0  0  0  0
    7.7859    0.5111   15.9499 H   0  0  0  0  0  0  0  0  0  0  0  0
    8.3960   -0.8621   16.6451 H   0  0  0  0  0  0  0  0  0  0  0  0
    6.9827   -1.1112   15.5716 H   0  0  0  0  0  0  0  0  0  0  0  0
   -0.2823    1.0539   31.8036 H   0  0  0  0  0  0  0  0  0  0  0  0
   -2.7757    0.1332   32.5708 H   0  0  0  0  0  0  0  0  0  0  0  0
   -3.0704   -2.0271   31.2205 H   0  0  0  0  0  0  0  0  0  0  0  0
  1  2  1  0
  2  3  1  0
  3  4  1  0
  4  5  1  0
  5  6  1  0
  6  7  1  0
  7  8  2  0
  7  9  1  0
  9 10  1  0
 10 11  1  0
 11 12  1  0
 12 13  2  0
 13 14  1  0
 14 15  2  0
 15 16  1  0
 16 17  1  0
  3 18  1  0
 18 19  2  0
 18 20  1  0
 20 21  1  0
 21 22  2  0
 22 23  1  0
 23 24  1  0
 16 12  1  0
 24 20  2  0
  1 25  1  0
  1 26  1  0
  1 27  1  0
  2 28  1  0
  2 29  1  0
  4 30  1  0
  4 31  1  0
  5 32  1  0
  5 33  1  0
  6 34  1  0
  9 35  1  0
  9 36  1  0
 11 37  1  0
 11 38  1  0
 14 39  1  0
 15 40  1  0
 17 41  1  0
 17 42  1  0
 17 43  1  0
 21 44  1  0
 22 45  1  0
 23 46  1  0
M  END
>  <Energy>  (843) 
498.57799006682501

>  <compound_id>  (843) 
10601

>  <target_id>  (843) 
1

>  <reference_id>  (843) 
7

>  <inspiration_ids>  (843) 
[80, 7]

>  <energy_score>  (843) 
379.83256607034156

>  <distance_score>  (843) 
10.221272481695575

>  <path>  (843) 
/opt/xchem-fragalysis-2/maxwin/BulkDock/SCRATCH/511020/C10601-P7/C10601-P7.minimised.mol

>  <scratch_subdir>  (843) 
/opt/xchem-fragalysis-2/maxwin/BulkDock/SCRATCH/511020/C10601-P7

>  <fragmenstein_runtime>  (843) 
14.159687042236328

>  <fragmenstein_outcome>  (843) 
too moved

>  <fragmenstein_mode>  (843) 
expansion

>  <fragmenstein_error>  (843) 


$$$$
C10604-P80
     RDKit          3D

 30 32  0  0  0  0  0  0  0  0999 V2000
    3.5920    1.6038   25.6115 O   0  0  0  0  0  0  0  0  0  0  0  0
    3.7337    0.3971   25.4195 C   0  0  0  0  0  0  0  0  0  0  0  0
    3.1484   -0.5220   26.2900 O   0  0  0  0  0  0  0  0  0  0  0  0
    2.5727   -0.0204   27.5651 C   0  0  0  0  0  0  0  0  0  0  0  0
    1.1021   -0.3529   27.9490 C   0  0  0  0  0  0  0  0  0  0  0  0
   -0.0003    0.5599   28.0406 C   0  0  0  0  0  0  0  0  0  0  0  0
   -1.0645   -0.1648   28.5298 C   0  0  0  0  0  0  0  0  0  0  0  0
   -0.5941   -1.4325   28.6882 N   0  0  0  0  0  0  0  0  0  0  0  0
    0.7279   -1.5515   28.4418 N   0  0  0  0  0  0  0  0  0  0  0  0
    4.6497   -0.2239   24.1916 C   0  0  0  0  0  0  0  0  0  0  0  0
    4.7772   -1.5244   24.3685 C   0  0  0  0  0  0  0  0  0  0  0  0
    5.0239   -2.0644   23.2070 N   0  0  0  0  0  0  0  0  0  0  0  0
    5.2773   -1.3986   21.9163 C   0  0  0  0  0  0  0  0  0  0  0  0
    5.2123    0.1526   21.4752 C   0  0  0  0  0  0  0  0  0  0  0  0
    6.2323    0.8520   20.3493 N   0  0  0  0  0  0  0  0  0  0  0  0
    6.5005    0.5813   18.9667 C   0  0  0  0  0  0  0  0  0  0  0  0
    6.7467    1.7669   18.3296 C   0  0  0  0  0  0  0  0  0  0  0  0
    6.9265    2.7242   19.2487 N   0  0  0  0  0  0  0  0  0  0  0  0
    6.8205    2.1078   20.4154 C   0  0  0  0  0  0  0  0  0  0  0  0
    4.7484    0.6082   22.6067 N   0  0  0  0  0  0  0  0  0  0  0  0
    3.2084   -0.4539   28.3472 H   0  0  0  0  0  0  0  0  0  0  0  0
    2.6965    1.0658   27.6383 H   0  0  0  0  0  0  0  0  0  0  0  0
    0.0044    1.6099   27.7810 H   0  0  0  0  0  0  0  0  0  0  0  0
   -2.0905    0.0964   28.7391 H   0  0  0  0  0  0  0  0  0  0  0  0
   -1.1072   -2.2649   28.9598 H   0  0  0  0  0  0  0  0  0  0  0  0
    4.5815   -2.1278   25.2304 H   0  0  0  0  0  0  0  0  0  0  0  0
    5.7461   -2.1707   21.2735 H   0  0  0  0  0  0  0  0  0  0  0  0
    6.3383   -0.3532   18.4696 H   0  0  0  0  0  0  0  0  0  0  0  0
    6.8442    1.9577   17.2707 H   0  0  0  0  0  0  0  0  0  0  0  0
    7.0030    2.6028   21.3483 H   0  0  0  0  0  0  0  0  0  0  0  0
  1  2  2  0
  2  3  1  0
  3  4  1  0
  4  5  1  0
  5  6  1  0
  6  7  2  0
  7  8  1  0
  8  9  1  0
  2 10  1  0
 10 11  2  0
 11 12  1  0
 12 13  2  0
 13 14  1  0
 14 15  1  0
 15 16  1  0
 16 17  2  0
 17 18  1  0
 18 19  2  0
 14 20  2  0
  9  5  2  0
 20 10  1  0
 19 15  1  0
  4 21  1  0
  4 22  1  0
  6 23  1  0
  7 24  1  0
  8 25  1  0
 11 26  1  0
 13 27  1  0
 16 28  1  0
 17 29  1  0
 19 30  1  0
M  END
>  <Energy>  (844) 
305.01279031138768

>  <compound_id>  (844) 
10604

>  <target_id>  (844) 
1

>  <reference_id>  (844) 
80

>  <inspiration_ids>  (844) 
[80, 7]

>  <energy_score>  (844) 
133.34637001381213

>  <distance_score>  (844) 
12.007982830354509

>  <path>  (844) 
/opt/xchem-fragalysis-2/maxwin/BulkDock/SCRATCH/511020/C10604-P80/C10604-P80.minimised.mol

>  <scratch_subdir>  (844) 
/opt/xchem-fragalysis-2/maxwin/BulkDock/SCRATCH/511020/C10604-P80

>  <fragmenstein_runtime>  (844) 
6.169645309448242

>  <fragmenstein_outcome>  (844) 
too moved

>  <fragmenstein_mode>  (844) 
expansion

>  <fragmenstein_error>  (844) 


$$$$
C10604-P7
     RDKit          3D

 30 32  0  0  0  0  0  0  0  0999 V2000
    5.7104   -1.7924   23.9536 O   0  0  0  0  0  0  0  0  0  0  0  0
    4.9891   -2.0776   23.0016 C   0  0  0  0  0  0  0  0  0  0  0  0
    3.6086   -2.3326   23.5008 O   0  0  0  0  0  0  0  0  0  0  0  0
    3.6743   -2.0432   25.1595 C   0  0  0  0  0  0  0  0  0  0  0  0
    2.6414   -1.6359   26.3581 C   0  0  0  0  0  0  0  0  0  0  0  0
    1.9755   -2.4796   27.3324 C   0  0  0  0  0  0  0  0  0  0  0  0
    1.2923   -1.6622   28.2039 C   0  0  0  0  0  0  0  0  0  0  0  0
    1.6386   -0.4075   27.8281 N   0  0  0  0  0  0  0  0  0  0  0  0
    2.5133   -0.3590   26.8028 N   0  0  0  0  0  0  0  0  0  0  0  0
    5.8722   -2.2757   21.1584 C   0  0  0  0  0  0  0  0  0  0  0  0
    6.9466   -1.0867   20.5230 C   0  0  0  0  0  0  0  0  0  0  0  0
    7.0987   -0.3672   19.0615 N   0  0  0  0  0  0  0  0  0  0  0  0
    6.0278   -0.6636   18.0580 C   0  0  0  0  0  0  0  0  0  0  0  0
    5.1019   -1.9320   18.2855 C   0  0  0  0  0  0  0  0  0  0  0  0
    3.9840   -2.0284   17.3177 N   0  0  0  0  0  0  0  0  0  0  0  0
    3.3123   -3.1589   16.8909 C   0  0  0  0  0  0  0  0  0  0  0  0
    2.7055   -2.8104   15.7087 C   0  0  0  0  0  0  0  0  0  0  0  0
    2.9046   -1.4906   15.4261 N   0  0  0  0  0  0  0  0  0  0  0  0
    3.6282   -1.0378   16.4227 C   0  0  0  0  0  0  0  0  0  0  0  0
    5.3256   -2.9400   19.7887 N   0  0  0  0  0  0  0  0  0  0  0  0
    4.0561   -2.9983   25.4890 H   0  0  0  0  0  0  0  0  0  0  0  0
    4.3886   -1.2253   25.2874 H   0  0  0  0  0  0  0  0  0  0  0  0
    1.9593   -3.5530   27.3529 H   0  0  0  0  0  0  0  0  0  0  0  0
    0.6398   -1.8618   29.0395 H   0  0  0  0  0  0  0  0  0  0  0  0
    1.3603    0.4721   28.2471 H   0  0  0  0  0  0  0  0  0  0  0  0
    6.4825   -0.1061   20.8800 H   0  0  0  0  0  0  0  0  0  0  0  0
    6.0125   -0.0242   17.1905 H   0  0  0  0  0  0  0  0  0  0  0  0
    3.3972   -4.1157   17.3854 H   0  0  0  0  0  0  0  0  0  0  0  0
    2.1323   -3.4475   15.0472 H   0  0  0  0  0  0  0  0  0  0  0  0
    3.9244   -0.0047   16.5325 H   0  0  0  0  0  0  0  0  0  0  0  0
  1  2  2  0
  2  3  1  0
  3  4  1  0
  4  5  1  0
  5  6  1  0
  6  7  2  0
  7  8  1  0
  8  9  1  0
  2 10  1  0
 10 11  2  0
 11 12  1  0
 12 13  2  0
 13 14  1  0
 14 15  1  0
 15 16  1  0
 16 17  2  0
 17 18  1  0
 18 19  2  0
 14 20  2  0
  9  5  2  0
 20 10  1  0
 19 15  1  0
  4 21  1  0
  4 22  1  0
  6 23  1  0
  7 24  1  0
  8 25  1  0
 11 26  1  0
 13 27  1  0
 16 28  1  0
 17 29  1  0
 19 30  1  0
M  END
>  <Energy>  (845) 
525.70459259035272

>  <compound_id>  (845) 
10604

>  <target_id>  (845) 
1

>  <reference_id>  (845) 
7

>  <inspiration_ids>  (845) 
[80, 7]

>  <energy_score>  (845) 
354.0381722927634

>  <distance_score>  (845) 
14.003167158576415

>  <path>  (845) 
/opt/xchem-fragalysis-2/maxwin/BulkDock/SCRATCH/511020/C10604-P7/C10604-P7.minimised.mol

>  <scratch_subdir>  (845) 
/opt/xchem-fragalysis-2/maxwin/BulkDock/SCRATCH/511020/C10604-P7

>  <fragmenstein_runtime>  (845) 
5.933508396148682

>  <fragmenstein_outcome>  (845) 
too moved

>  <fragmenstein_mode>  (845) 
expansion

>  <fragmenstein_error>  (845) 


$$$$
C10605-P80
     RDKit          3D

 43 44  0  0  0  0  0  0  0  0999 V2000
    3.9519    1.5427   28.0763 C   0  0  0  0  0  0  0  0  0  0  0  0
    4.6862    0.3120   27.7122 N   0  0  0  0  0  0  0  0  0  0  0  0
    3.2916   -0.3492   28.0587 C   0  0  0  0  0  0  0  0  0  0  0  0
    2.5378   -0.2925   29.4651 C   0  0  0  0  0  0  0  0  0  0  0  0
    1.7066    0.8796   29.5311 O   0  0  0  0  0  0  0  0  0  0  0  0
    1.5848   -1.5332   29.6601 C   0  0  0  0  0  0  0  0  0  0  0  0
    0.3256   -1.3975   30.5675 N   0  0  0  0  0  0  0  0  0  0  0  0
    1.3261   -1.7222   31.6378 C   0  0  0  0  0  0  0  0  0  0  0  0
   -0.8356   -2.2480   30.6997 C   0  0  0  0  0  0  0  0  0  0  0  0
   -1.0774   -3.3182   30.2082 O   0  0  0  0  0  0  0  0  0  0  0  0
   -1.9000   -1.6745   31.6221 C   0  0  0  0  0  0  0  0  0  0  0  0
   -2.0114   -0.3793   32.2153 C   0  0  0  0  0  0  0  0  0  0  0  0
   -3.1257   -0.4168   33.0253 C   0  0  0  0  0  0  0  0  0  0  0  0
   -3.6173   -1.6789   32.9095 N   0  0  0  0  0  0  0  0  0  0  0  0
   -2.9604   -2.4292   32.0100 N   0  0  0  0  0  0  0  0  0  0  0  0
    5.7500   -0.3838   28.3912 C   0  0  0  0  0  0  0  0  0  0  0  0
    6.2478   -0.1894   29.4705 O   0  0  0  0  0  0  0  0  0  0  0  0
    6.2855   -1.4972   27.4703 C   0  0  0  0  0  0  0  0  0  0  0  0
    7.6926   -1.3551   26.9277 C   0  0  0  0  0  0  0  0  0  0  0  0
    8.7781   -0.5422   27.1737 C   0  0  0  0  0  0  0  0  0  0  0  0
    9.8323   -0.8403   26.3332 N   0  0  0  0  0  0  0  0  0  0  0  0
    9.4157   -1.8321   25.5837 C   0  0  0  0  0  0  0  0  0  0  0  0
    8.1316   -2.1655   25.8942 N   0  0  0  0  0  0  0  0  0  0  0  0
    4.6540    2.3332   27.7689 H   0  0  0  0  0  0  0  0  0  0  0  0
    3.9027    1.7126   29.1579 H   0  0  0  0  0  0  0  0  0  0  0  0
    3.0542    1.7890   27.4919 H   0  0  0  0  0  0  0  0  0  0  0  0
    3.5211   -1.4179   27.9267 H   0  0  0  0  0  0  0  0  0  0  0  0
    2.5899   -0.1392   27.2335 H   0  0  0  0  0  0  0  0  0  0  0  0
    3.2782   -0.2382   30.2687 H   0  0  0  0  0  0  0  0  0  0  0  0
    0.8951    0.6352   30.0175 H   0  0  0  0  0  0  0  0  0  0  0  0
    2.1128   -2.5004   29.7096 H   0  0  0  0  0  0  0  0  0  0  0  0
    1.0775   -1.6320   28.6856 H   0  0  0  0  0  0  0  0  0  0  0  0
    1.6983   -2.7576   31.6117 H   0  0  0  0  0  0  0  0  0  0  0  0
    0.7608   -1.6960   32.5818 H   0  0  0  0  0  0  0  0  0  0  0  0
    2.0984   -0.9640   31.8030 H   0  0  0  0  0  0  0  0  0  0  0  0
   -1.3343    0.4525   32.0832 H   0  0  0  0  0  0  0  0  0  0  0  0
   -3.5677    0.3076   33.6931 H   0  0  0  0  0  0  0  0  0  0  0  0
   -4.3805   -2.1093   33.4219 H   0  0  0  0  0  0  0  0  0  0  0  0
    5.6005   -1.5941   26.6192 H   0  0  0  0  0  0  0  0  0  0  0  0
    6.2209   -2.4264   28.0500 H   0  0  0  0  0  0  0  0  0  0  0  0
    8.8579    0.2493   27.9092 H   0  0  0  0  0  0  0  0  0  0  0  0
    9.9896   -2.3192   24.8088 H   0  0  0  0  0  0  0  0  0  0  0  0
    7.5451   -2.8505   25.4348 H   0  0  0  0  0  0  0  0  0  0  0  0
  1  2  1  0
  2  3  1  0
  3  4  1  0
  4  5  1  0
  4  6  1  0
  6  7  1  0
  7  8  1  0
  7  9  1  0
  9 10  2  0
  9 11  1  0
 11 12  1  0
 12 13  2  0
 13 14  1  0
 14 15  1  0
  2 16  1  0
 16 17  2  0
 16 18  1  0
 18 19  1  0
 19 20  2  0
 20 21  1  0
 21 22  2  0
 22 23  1  0
 15 11  2  0
 23 19  1  0
  1 24  1  0
  1 25  1  0
  1 26  1  0
  3 27  1  0
  3 28  1  0
  4 29  1  0
  5 30  1  0
  6 31  1  0
  6 32  1  0
  8 33  1  0
  8 34  1  0
  8 35  1  0
 12 36  1  0
 13 37  1  0
 14 38  1  0
 18 39  1  0
 18 40  1  0
 20 41  1  0
 22 42  1  0
 23 43  1  0
M  END
>  <Energy>  (846) 
239.85075079738124

>  <compound_id>  (846) 
10605

>  <target_id>  (846) 
1

>  <reference_id>  (846) 
80

>  <inspiration_ids>  (846) 
[80, 7]

>  <energy_score>  (846) 
124.34802115665366

>  <distance_score>  (846) 
11.074003768305694

>  <path>  (846) 
/opt/xchem-fragalysis-2/maxwin/BulkDock/SCRATCH/511020/C10605-P80/C10605-P80.minimised.mol

>  <scratch_subdir>  (846) 
/opt/xchem-fragalysis-2/maxwin/BulkDock/SCRATCH/511020/C10605-P80

>  <fragmenstein_runtime>  (846) 
16.266836404800415

>  <fragmenstein_outcome>  (846) 
too moved

>  <fragmenstein_mode>  (846) 
expansion

>  <fragmenstein_error>  (846) 


$$$$
C10605-P7
     RDKit          3D

 43 44  0  0  0  0  0  0  0  0999 V2000
    1.1562   -3.0105   31.3538 C   0  0  0  0  0  0  0  0  0  0  0  0
    1.3699   -2.3393   30.0576 N   0  0  0  0  0  0  0  0  0  0  0  0
    0.6156   -1.1890   30.7810 C   0  0  0  0  0  0  0  0  0  0  0  0
   -0.9208   -1.2172   31.1846 C   0  0  0  0  0  0  0  0  0  0  0  0
   -1.6024   -2.2614   30.4925 O   0  0  0  0  0  0  0  0  0  0  0  0
   -1.1198   -1.3166   32.7434 C   0  0  0  0  0  0  0  0  0  0  0  0
   -2.5786   -1.0272   33.1441 N   0  0  0  0  0  0  0  0  0  0  0  0
   -2.0811   -1.5356   34.4823 C   0  0  0  0  0  0  0  0  0  0  0  0
   -3.7941   -1.6897   32.7857 C   0  0  0  0  0  0  0  0  0  0  0  0
   -3.9764   -2.6963   32.1512 O   0  0  0  0  0  0  0  0  0  0  0  0
   -4.9955   -1.0016   33.3943 C   0  0  0  0  0  0  0  0  0  0  0  0
   -5.0737    0.1823   34.1898 C   0  0  0  0  0  0  0  0  0  0  0  0
   -6.3992    0.3293   34.5309 C   0  0  0  0  0  0  0  0  0  0  0  0
   -7.0453   -0.7136   33.9463 N   0  0  0  0  0  0  0  0  0  0  0  0
   -6.2340   -1.5142   33.2453 N   0  0  0  0  0  0  0  0  0  0  0  0
    2.5766   -1.8353   29.4483 C   0  0  0  0  0  0  0  0  0  0  0  0
    3.6951   -1.7550   29.8829 O   0  0  0  0  0  0  0  0  0  0  0  0
    2.2586   -1.4638   27.9797 C   0  0  0  0  0  0  0  0  0  0  0  0
    3.4659   -1.3347   27.0932 C   0  0  0  0  0  0  0  0  0  0  0  0
    4.7316   -0.8167   27.2801 C   0  0  0  0  0  0  0  0  0  0  0  0
    5.4536   -0.8374   26.1260 N   0  0  0  0  0  0  0  0  0  0  0  0
    4.6571   -1.3721   25.2356 C   0  0  0  0  0  0  0  0  0  0  0  0
    3.4598   -1.7213   25.7745 N   0  0  0  0  0  0  0  0  0  0  0  0
    1.5694   -2.5289   32.2528 H   0  0  0  0  0  0  0  0  0  0  0  0
    0.1690   -3.4662   31.4589 H   0  0  0  0  0  0  0  0  0  0  0  0
    1.8080   -3.8948   31.2718 H   0  0  0  0  0  0  0  0  0  0  0  0
    0.6135   -0.4199   29.9908 H   0  0  0  0  0  0  0  0  0  0  0  0
    1.2484   -0.6868   31.5349 H   0  0  0  0  0  0  0  0  0  0  0  0
   -1.3688   -0.2695   30.8590 H   0  0  0  0  0  0  0  0  0  0  0  0
   -2.5293   -2.2856   30.7974 H   0  0  0  0  0  0  0  0  0  0  0  0
   -0.4532   -0.5618   33.1859 H   0  0  0  0  0  0  0  0  0  0  0  0
   -0.8191   -2.3489   32.9657 H   0  0  0  0  0  0  0  0  0  0  0  0
   -1.8548   -2.6088   34.5196 H   0  0  0  0  0  0  0  0  0  0  0  0
   -2.9297   -1.4434   35.1750 H   0  0  0  0  0  0  0  0  0  0  0  0
   -1.3095   -0.9038   34.9466 H   0  0  0  0  0  0  0  0  0  0  0  0
   -4.2564    0.8221   34.4911 H   0  0  0  0  0  0  0  0  0  0  0  0
   -6.9228    1.0627   35.1278 H   0  0  0  0  0  0  0  0  0  0  0  0
   -8.0332   -0.9447   33.9755 H   0  0  0  0  0  0  0  0  0  0  0  0
    1.7248   -0.5069   27.9773 H   0  0  0  0  0  0  0  0  0  0  0  0
    1.5887   -2.2299   27.5720 H   0  0  0  0  0  0  0  0  0  0  0  0
    5.1512   -0.4139   28.1925 H   0  0  0  0  0  0  0  0  0  0  0  0
    4.8620   -1.5405   24.1949 H   0  0  0  0  0  0  0  0  0  0  0  0
    2.6859   -2.1327   25.2613 H   0  0  0  0  0  0  0  0  0  0  0  0
  1  2  1  0
  2  3  1  0
  3  4  1  0
  4  5  1  0
  4  6  1  0
  6  7  1  0
  7  8  1  0
  7  9  1  0
  9 10  2  0
  9 11  1  0
 11 12  1  0
 12 13  2  0
 13 14  1  0
 14 15  1  0
  2 16  1  0
 16 17  2  0
 16 18  1  0
 18 19  1  0
 19 20  2  0
 20 21  1  0
 21 22  2  0
 22 23  1  0
 15 11  2  0
 23 19  1  0
  1 24  1  0
  1 25  1  0
  1 26  1  0
  3 27  1  0
  3 28  1  0
  4 29  1  0
  5 30  1  0
  6 31  1  0
  6 32  1  0
  8 33  1  0
  8 34  1  0
  8 35  1  0
 12 36  1  0
 13 37  1  0
 14 38  1  0
 18 39  1  0
 18 40  1  0
 20 41  1  0
 22 42  1  0
 23 43  1  0
M  END
>  <Energy>  (847) 
235.77461427967756

>  <compound_id>  (847) 
10605

>  <target_id>  (847) 
1

>  <reference_id>  (847) 
7

>  <inspiration_ids>  (847) 
[80, 7]

>  <energy_score>  (847) 
120.2718846389568

>  <distance_score>  (847) 
10.725549843410894

>  <path>  (847) 
/opt/xchem-fragalysis-2/maxwin/BulkDock/SCRATCH/511020/C10605-P7/C10605-P7.minimised.mol

>  <scratch_subdir>  (847) 
/opt/xchem-fragalysis-2/maxwin/BulkDock/SCRATCH/511020/C10605-P7

>  <fragmenstein_runtime>  (847) 
16.004648447036743

>  <fragmenstein_outcome>  (847) 
too moved

>  <fragmenstein_mode>  (847) 
expansion

>  <fragmenstein_error>  (847) 


$$$$
C10606-P80
     RDKit          3D

 46 47  0  0  0  0  0  0  0  0999 V2000
    5.1249   -1.5480   24.9706 C   0  0  0  0  0  0  0  0  0  0  0  0
    6.4991   -1.0505   25.2734 N   0  0  0  0  0  0  0  0  0  0  0  0
    5.9051   -0.9525   26.7121 C   0  0  0  0  0  0  0  0  0  0  0  0
    4.5879   -0.2241   27.3011 C   0  0  0  0  0  0  0  0  0  0  0  0
    4.1777    0.9123   26.5418 O   0  0  0  0  0  0  0  0  0  0  0  0
    3.3819   -1.2403   27.5755 C   0  0  0  0  0  0  0  0  0  0  0  0
    2.2109   -0.9911   28.5840 N   0  0  0  0  0  0  0  0  0  0  0  0
    3.2352   -1.4641   29.5621 C   0  0  0  0  0  0  0  0  0  0  0  0
    0.9671   -1.7085   28.7817 C   0  0  0  0  0  0  0  0  0  0  0  0
    0.5661   -2.7270   28.2810 O   0  0  0  0  0  0  0  0  0  0  0  0
    0.0167   -1.1066   29.8118 C   0  0  0  0  0  0  0  0  0  0  0  0
   -1.3456   -1.5417   30.0158 C   0  0  0  0  0  0  0  0  0  0  0  0
   -1.8339   -0.8322   31.0858 C   0  0  0  0  0  0  0  0  0  0  0  0
   -0.8110   -0.0199   31.4619 N   0  0  0  0  0  0  0  0  0  0  0  0
    0.3125   -0.1603   30.7283 N   0  0  0  0  0  0  0  0  0  0  0  0
    7.5221   -1.9820   24.7085 C   0  0  0  0  0  0  0  0  0  0  0  0
    8.0703   -2.9400   25.2022 O   0  0  0  0  0  0  0  0  0  0  0  0
    7.8334   -1.6622   23.2628 C   0  0  0  0  0  0  0  0  0  0  0  0
    8.1172   -3.0662   22.1294 C   0  0  0  0  0  0  0  0  0  0  0  0
    7.0860   -3.1076   21.3817 C   0  0  0  0  0  0  0  0  0  0  0  0
    7.6068   -4.4568   20.3960 N   0  0  0  0  0  0  0  0  0  0  0  0
    8.8540   -4.5112   20.2550 C   0  0  0  0  0  0  0  0  0  0  0  0
    9.4122   -3.4503   20.7648 N   0  0  0  0  0  0  0  0  0  0  0  0
   11.4529   -3.4539   20.9477 C   0  0  0  0  0  0  0  0  0  0  0  0
    4.6855   -2.3751   25.5259 H   0  0  0  0  0  0  0  0  0  0  0  0
    4.4291   -0.7127   24.9084 H   0  0  0  0  0  0  0  0  0  0  0  0
    5.1547   -1.8840   23.9316 H   0  0  0  0  0  0  0  0  0  0  0  0
    6.7130   -0.3524   27.1628 H   0  0  0  0  0  0  0  0  0  0  0  0
    6.0469   -1.9142   27.2255 H   0  0  0  0  0  0  0  0  0  0  0  0
    4.9089    0.1955   28.2583 H   0  0  0  0  0  0  0  0  0  0  0  0
    4.8736    1.1153   25.8906 H   0  0  0  0  0  0  0  0  0  0  0  0
    3.7121   -2.2929   27.5739 H   0  0  0  0  0  0  0  0  0  0  0  0
    2.8038   -1.2046   26.6392 H   0  0  0  0  0  0  0  0  0  0  0  0
    2.7485   -1.4087   30.5472 H   0  0  0  0  0  0  0  0  0  0  0  0
    4.1047   -0.8175   29.7007 H   0  0  0  0  0  0  0  0  0  0  0  0
    3.4773   -2.5356   29.4865 H   0  0  0  0  0  0  0  0  0  0  0  0
   -1.8565   -2.2959   29.4309 H   0  0  0  0  0  0  0  0  0  0  0  0
   -2.7859   -0.8319   31.5940 H   0  0  0  0  0  0  0  0  0  0  0  0
   -0.7962    0.6556   32.2177 H   0  0  0  0  0  0  0  0  0  0  0  0
    6.9884   -1.1254   22.8083 H   0  0  0  0  0  0  0  0  0  0  0  0
    8.6550   -0.9307   23.3082 H   0  0  0  0  0  0  0  0  0  0  0  0
    6.0711   -2.7201   21.2850 H   0  0  0  0  0  0  0  0  0  0  0  0
    9.5688   -5.2543   19.8806 H   0  0  0  0  0  0  0  0  0  0  0  0
   11.6761   -4.5533   20.7786 H   0  0  0  0  0  0  0  0  0  0  0  0
   11.6695   -3.2930   22.0388 H   0  0  0  0  0  0  0  0  0  0  0  0
   11.9893   -2.9267   20.1656 H   0  0  0  0  0  0  0  0  0  0  0  0
  1  2  1  0
  2  3  1  0
  3  4  1  0
  4  5  1  0
  4  6  1  0
  6  7  1  0
  7  8  1  0
  7  9  1  0
  9 10  2  0
  9 11  1  0
 11 12  1  0
 12 13  2  0
 13 14  1  0
 14 15  1  0
  2 16  1  0
 16 17  2  0
 16 18  1  0
 18 19  1  0
 19 20  2  0
 20 21  1  0
 21 22  2  0
 22 23  1  0
 23 24  1  0
 15 11  2  0
 23 19  1  0
  1 25  1  0
  1 26  1  0
  1 27  1  0
  3 28  1  0
  3 29  1  0
  4 30  1  0
  5 31  1  0
  6 32  1  0
  6 33  1  0
  8 34  1  0
  8 35  1  0
  8 36  1  0
 12 37  1  0
 13 38  1  0
 14 39  1  0
 18 40  1  0
 18 41  1  0
 20 42  1  0
 22 43  1  0
 24 44  1  0
 24 45  1  0
 24 46  1  0
M  END
>  <Energy>  (848) 
564.8361827830837

>  <compound_id>  (848) 
10606

>  <target_id>  (848) 
1

>  <reference_id>  (848) 
80

>  <inspiration_ids>  (848) 
[80, 7]

>  <energy_score>  (848) 
443.0164091437536

>  <distance_score>  (848) 
10.848467455660122

>  <path>  (848) 
/opt/xchem-fragalysis-2/maxwin/BulkDock/SCRATCH/511020/C10606-P80/C10606-P80.minimised.mol

>  <scratch_subdir>  (848) 
/opt/xchem-fragalysis-2/maxwin/BulkDock/SCRATCH/511020/C10606-P80

>  <fragmenstein_runtime>  (848) 
18.092690229415894

>  <fragmenstein_outcome>  (848) 
too moved

>  <fragmenstein_mode>  (848) 
expansion

>  <fragmenstein_error>  (848) 


$$$$
C10606-P7
     RDKit          3D

 46 47  0  0  0  0  0  0  0  0999 V2000
   -2.6743   -5.4016   15.4765 C   0  0  0  0  0  0  0  0  0  0  0  0
   -2.5429   -4.6340   16.7588 N   0  0  0  0  0  0  0  0  0  0  0  0
   -4.1195   -4.5599   16.6134 C   0  0  0  0  0  0  0  0  0  0  0  0
   -4.8916   -4.1823   17.9566 C   0  0  0  0  0  0  0  0  0  0  0  0
   -5.7406   -3.0482   17.6994 O   0  0  0  0  0  0  0  0  0  0  0  0
   -5.8492   -5.3316   18.4863 C   0  0  0  0  0  0  0  0  0  0  0  0
   -6.6399   -5.0260   19.8117 N   0  0  0  0  0  0  0  0  0  0  0  0
   -5.5057   -5.7808   20.4095 C   0  0  0  0  0  0  0  0  0  0  0  0
   -7.9008   -5.5498   20.3038 C   0  0  0  0  0  0  0  0  0  0  0  0
   -8.6116   -6.4158   19.8613 O   0  0  0  0  0  0  0  0  0  0  0  0
   -8.3589   -4.9429   21.6351 C   0  0  0  0  0  0  0  0  0  0  0  0
   -9.1672   -5.6136   22.6236 C   0  0  0  0  0  0  0  0  0  0  0  0
   -9.3860   -4.7202   23.6444 C   0  0  0  0  0  0  0  0  0  0  0  0
   -8.7537   -3.5855   23.2518 N   0  0  0  0  0  0  0  0  0  0  0  0
   -8.1259   -3.6792   22.0555 N   0  0  0  0  0  0  0  0  0  0  0  0
   -1.5175   -3.5890   16.6164 C   0  0  0  0  0  0  0  0  0  0  0  0
   -1.6169   -2.4400   16.2663 O   0  0  0  0  0  0  0  0  0  0  0  0
   -0.1086   -4.1813   16.9950 C   0  0  0  0  0  0  0  0  0  0  0  0
    1.1267   -3.6241   16.2850 C   0  0  0  0  0  0  0  0  0  0  0  0
    1.9873   -4.2230   15.3752 C   0  0  0  0  0  0  0  0  0  0  0  0
    3.0830   -3.4403   15.1020 N   0  0  0  0  0  0  0  0  0  0  0  0
    2.9115   -2.3616   15.8286 C   0  0  0  0  0  0  0  0  0  0  0  0
    1.7542   -2.4238   16.5620 N   0  0  0  0  0  0  0  0  0  0  0  0
    1.3228   -1.3934   17.4745 C   0  0  0  0  0  0  0  0  0  0  0  0
   -1.6480   -5.6018   15.1356 H   0  0  0  0  0  0  0  0  0  0  0  0
   -3.0874   -6.4104   15.6184 H   0  0  0  0  0  0  0  0  0  0  0  0
   -3.1048   -4.8380   14.6347 H   0  0  0  0  0  0  0  0  0  0  0  0
   -4.6046   -5.4993   16.3064 H   0  0  0  0  0  0  0  0  0  0  0  0
   -4.3366   -3.7550   15.8938 H   0  0  0  0  0  0  0  0  0  0  0  0
   -4.1814   -3.8653   18.7134 H   0  0  0  0  0  0  0  0  0  0  0  0
   -6.4560   -3.1020   18.3616 H   0  0  0  0  0  0  0  0  0  0  0  0
   -6.6831   -5.3620   17.7656 H   0  0  0  0  0  0  0  0  0  0  0  0
   -5.4219   -6.3420   18.3632 H   0  0  0  0  0  0  0  0  0  0  0  0
   -4.5127   -5.3565   20.2570 H   0  0  0  0  0  0  0  0  0  0  0  0
   -5.6560   -5.7262   21.4873 H   0  0  0  0  0  0  0  0  0  0  0  0
   -5.5593   -6.8662   20.2274 H   0  0  0  0  0  0  0  0  0  0  0  0
   -9.5153   -6.6360   22.5623 H   0  0  0  0  0  0  0  0  0  0  0  0
   -9.9228   -4.7918   24.5782 H   0  0  0  0  0  0  0  0  0  0  0  0
   -8.7072   -2.7023   23.7472 H   0  0  0  0  0  0  0  0  0  0  0  0
   -0.1246   -5.2666   16.8378 H   0  0  0  0  0  0  0  0  0  0  0  0
    0.0444   -4.0290   18.0626 H   0  0  0  0  0  0  0  0  0  0  0  0
    1.8832   -5.2014   14.9249 H   0  0  0  0  0  0  0  0  0  0  0  0
    3.5824   -1.5140   15.8678 H   0  0  0  0  0  0  0  0  0  0  0  0
    1.7293   -0.4322   17.1478 H   0  0  0  0  0  0  0  0  0  0  0  0
    0.2362   -1.3335   17.4818 H   0  0  0  0  0  0  0  0  0  0  0  0
    1.7066   -1.6397   18.4640 H   0  0  0  0  0  0  0  0  0  0  0  0
  1  2  1  0
  2  3  1  0
  3  4  1  0
  4  5  1  0
  4  6  1  0
  6  7  1  0
  7  8  1  0
  7  9  1  0
  9 10  2  0
  9 11  1  0
 11 12  1  0
 12 13  2  0
 13 14  1  0
 14 15  1  0
  2 16  1  0
 16 17  2  0
 16 18  1  0
 18 19  1  0
 19 20  2  0
 20 21  1  0
 21 22  2  0
 22 23  1  0
 23 24  1  0
 15 11  2  0
 23 19  1  0
  1 25  1  0
  1 26  1  0
  1 27  1  0
  3 28  1  0
  3 29  1  0
  4 30  1  0
  5 31  1  0
  6 32  1  0
  6 33  1  0
  8 34  1  0
  8 35  1  0
  8 36  1  0
 12 37  1  0
 13 38  1  0
 14 39  1  0
 18 40  1  0
 18 41  1  0
 20 42  1  0
 22 43  1  0
 24 44  1  0
 24 45  1  0
 24 46  1  0
M  END
>  <Energy>  (849) 
242.04662545169811

>  <compound_id>  (849) 
10606

>  <target_id>  (849) 
1

>  <reference_id>  (849) 
7

>  <inspiration_ids>  (849) 
[80, 7]

>  <energy_score>  (849) 
120.2268518123762

>  <distance_score>  (849) 
13.432545311054858

>  <path>  (849) 
/opt/xchem-fragalysis-2/maxwin/BulkDock/SCRATCH/511020/C10606-P7/C10606-P7.minimised.mol

>  <scratch_subdir>  (849) 
/opt/xchem-fragalysis-2/maxwin/BulkDock/SCRATCH/511020/C10606-P7

>  <fragmenstein_runtime>  (849) 
28.09389901161194

>  <fragmenstein_outcome>  (849) 
too moved

>  <fragmenstein_mode>  (849) 
expansion

>  <fragmenstein_error>  (849) 


$$$$
C10608-P80
     RDKit          3D

 42 43  0  0  0  0  0  0  0  0999 V2000
    9.6060   -0.3153   25.0047 C   0  0  0  0  0  0  0  0  0  0  0  0
    8.1761   -0.6371   24.7924 C   0  0  0  0  0  0  0  0  0  0  0  0
    7.2219   -0.6458   25.7036 N   0  0  0  0  0  0  0  0  0  0  0  0
    6.0503   -0.9901   25.0535 C   0  0  0  0  0  0  0  0  0  0  0  0
    4.6981   -1.1801   25.7214 C   0  0  0  0  0  0  0  0  0  0  0  0
    4.2350   -0.3207   26.9235 C   0  0  0  0  0  0  0  0  0  0  0  0
    4.6466    0.7915   27.1351 O   0  0  0  0  0  0  0  0  0  0  0  0
    3.1892   -1.0965   27.6075 N   0  0  0  0  0  0  0  0  0  0  0  0
    3.7910   -1.9063   28.7106 C   0  0  0  0  0  0  0  0  0  0  0  0
    2.1986   -0.6891   28.7481 C   0  0  0  0  0  0  0  0  0  0  0  0
    0.8194   -1.4529   28.5468 C   0  0  0  0  0  0  0  0  0  0  0  0
   -0.1426   -1.4423   29.7704 N   0  0  0  0  0  0  0  0  0  0  0  0
   -1.0455   -2.1431   28.7914 C   0  0  0  0  0  0  0  0  0  0  0  0
   -0.8445   -0.3604   30.4020 C   0  0  0  0  0  0  0  0  0  0  0  0
   -0.9363    0.7982   30.0899 O   0  0  0  0  0  0  0  0  0  0  0  0
   -1.6809   -0.8004   31.6034 C   0  0  0  0  0  0  0  0  0  0  0  0
   -2.4203    0.0881   32.4562 C   0  0  0  0  0  0  0  0  0  0  0  0
   -3.0826   -0.6935   33.3694 C   0  0  0  0  0  0  0  0  0  0  0  0
   -2.6940   -1.9675   33.0919 N   0  0  0  0  0  0  0  0  0  0  0  0
   -1.9292   -2.0778   31.9819 N   0  0  0  0  0  0  0  0  0  0  0  0
    6.3466   -1.2235   23.7162 C   0  0  0  0  0  0  0  0  0  0  0  0
    7.6771   -0.9830   23.5664 N   0  0  0  0  0  0  0  0  0  0  0  0
   10.2304   -1.1909   24.8028 H   0  0  0  0  0  0  0  0  0  0  0  0
    9.7810   -0.0015   26.0383 H   0  0  0  0  0  0  0  0  0  0  0  0
    9.9212    0.4978   24.3433 H   0  0  0  0  0  0  0  0  0  0  0  0
    3.9247   -1.0286   24.9694 H   0  0  0  0  0  0  0  0  0  0  0  0
    4.5928   -2.2273   25.9973 H   0  0  0  0  0  0  0  0  0  0  0  0
    3.1321   -2.6611   29.1633 H   0  0  0  0  0  0  0  0  0  0  0  0
    4.3494   -1.2951   29.4374 H   0  0  0  0  0  0  0  0  0  0  0  0
    4.5830   -2.5057   28.2407 H   0  0  0  0  0  0  0  0  0  0  0  0
    2.5243   -0.6433   29.8017 H   0  0  0  0  0  0  0  0  0  0  0  0
    1.9937    0.3697   28.5269 H   0  0  0  0  0  0  0  0  0  0  0  0
    0.3906   -0.9262   27.6792 H   0  0  0  0  0  0  0  0  0  0  0  0
    1.1049   -2.4867   28.2997 H   0  0  0  0  0  0  0  0  0  0  0  0
   -1.9510   -2.4035   29.3556 H   0  0  0  0  0  0  0  0  0  0  0  0
   -1.4429   -1.4882   28.0018 H   0  0  0  0  0  0  0  0  0  0  0  0
   -0.6903   -3.1237   28.4447 H   0  0  0  0  0  0  0  0  0  0  0  0
   -2.4226    1.1642   32.3906 H   0  0  0  0  0  0  0  0  0  0  0  0
   -3.7259   -0.4627   34.2058 H   0  0  0  0  0  0  0  0  0  0  0  0
   -2.9077   -2.8125   33.6235 H   0  0  0  0  0  0  0  0  0  0  0  0
    5.7045   -1.4993   22.8957 H   0  0  0  0  0  0  0  0  0  0  0  0
    8.2026   -1.0347   22.7110 H   0  0  0  0  0  0  0  0  0  0  0  0
  1  2  1  0
  2  3  2  0
  3  4  1  0
  4  5  1  0
  5  6  1  0
  6  7  2  0
  6  8  1  0
  8  9  1  0
  8 10  1  0
 10 11  1  0
 11 12  1  0
 12 13  1  0
 12 14  1  0
 14 15  2  0
 14 16  1  0
 16 17  1  0
 17 18  2  0
 18 19  1  0
 19 20  1  0
  4 21  2  0
 21 22  1  0
 22  2  1  0
 20 16  2  0
  1 23  1  0
  1 24  1  0
  1 25  1  0
  5 26  1  0
  5 27  1  0
  9 28  1  0
  9 29  1  0
  9 30  1  0
 10 31  1  0
 10 32  1  0
 11 33  1  0
 11 34  1  0
 13 35  1  0
 13 36  1  0
 13 37  1  0
 17 38  1  0
 18 39  1  0
 19 40  1  0
 21 41  1  0
 22 42  1  0
M  END
>  <Energy>  (850) 
216.0049259546679

>  <compound_id>  (850) 
10608

>  <target_id>  (850) 
1

>  <reference_id>  (850) 
80

>  <inspiration_ids>  (850) 
[80, 7]

>  <energy_score>  (850) 
120.70098948054175

>  <distance_score>  (850) 
10.672829963919742

>  <path>  (850) 
/opt/xchem-fragalysis-2/maxwin/BulkDock/SCRATCH/511020/C10608-P80/C10608-P80.minimised.mol

>  <scratch_subdir>  (850) 
/opt/xchem-fragalysis-2/maxwin/BulkDock/SCRATCH/511020/C10608-P80

>  <fragmenstein_runtime>  (850) 
16.09172296524048

>  <fragmenstein_outcome>  (850) 
too moved

>  <fragmenstein_mode>  (850) 
expansion

>  <fragmenstein_error>  (850) 


$$$$
C10608-P7
     RDKit          3D

 42 43  0  0  0  0  0  0  0  0999 V2000
   10.5118   -4.1081   23.4469 C   0  0  0  0  0  0  0  0  0  0  0  0
   10.4375   -5.5401   23.0923 C   0  0  0  0  0  0  0  0  0  0  0  0
    9.3871   -6.3248   23.2248 N   0  0  0  0  0  0  0  0  0  0  0  0
    9.8158   -7.6109   22.9609 C   0  0  0  0  0  0  0  0  0  0  0  0
    8.8892   -8.8022   22.9582 C   0  0  0  0  0  0  0  0  0  0  0  0
    7.6345   -8.7748   23.8766 C   0  0  0  0  0  0  0  0  0  0  0  0
    7.2516   -7.7774   24.4276 O   0  0  0  0  0  0  0  0  0  0  0  0
    7.0595  -10.1085   23.8368 N   0  0  0  0  0  0  0  0  0  0  0  0
    7.6115  -10.9426   24.9648 C   0  0  0  0  0  0  0  0  0  0  0  0
    5.7207  -10.6440   24.3887 C   0  0  0  0  0  0  0  0  0  0  0  0
    4.5506  -10.3252   23.3677 C   0  0  0  0  0  0  0  0  0  0  0  0
    3.0888  -10.3532   23.8637 N   0  0  0  0  0  0  0  0  0  0  0  0
    3.2398  -11.8158   23.5671 C   0  0  0  0  0  0  0  0  0  0  0  0
    1.8812   -9.8494   23.2579 C   0  0  0  0  0  0  0  0  0  0  0  0
    1.6975   -9.3623   22.1750 O   0  0  0  0  0  0  0  0  0  0  0  0
    0.7269   -9.8839   24.2347 C   0  0  0  0  0  0  0  0  0  0  0  0
    0.6178  -10.5249   25.5077 C   0  0  0  0  0  0  0  0  0  0  0  0
   -0.6327  -10.2274   25.9841 C   0  0  0  0  0  0  0  0  0  0  0  0
   -1.1819   -9.3982   25.0600 N   0  0  0  0  0  0  0  0  0  0  0  0
   -0.4144   -9.2139   23.9846 N   0  0  0  0  0  0  0  0  0  0  0  0
   11.1373   -7.5622   22.5530 C   0  0  0  0  0  0  0  0  0  0  0  0
   11.4995   -6.2413   22.5872 N   0  0  0  0  0  0  0  0  0  0  0  0
   10.2707   -3.9709   24.5056 H   0  0  0  0  0  0  0  0  0  0  0  0
    9.7864   -3.5423   22.8582 H   0  0  0  0  0  0  0  0  0  0  0  0
   11.5131   -3.7053   23.2756 H   0  0  0  0  0  0  0  0  0  0  0  0
    9.4879   -9.6860   23.2076 H   0  0  0  0  0  0  0  0  0  0  0  0
    8.5242   -8.9404   21.9322 H   0  0  0  0  0  0  0  0  0  0  0  0
    7.3034  -10.6288   25.9744 H   0  0  0  0  0  0  0  0  0  0  0  0
    7.5502  -12.0252   24.7818 H   0  0  0  0  0  0  0  0  0  0  0  0
    8.6954  -10.7582   24.9776 H   0  0  0  0  0  0  0  0  0  0  0  0
    5.6991  -11.7336   24.5103 H   0  0  0  0  0  0  0  0  0  0  0  0
    5.4586  -10.1142   25.3160 H   0  0  0  0  0  0  0  0  0  0  0  0
    4.7313  -10.7122   22.3500 H   0  0  0  0  0  0  0  0  0  0  0  0
    4.6619   -9.2450   23.1786 H   0  0  0  0  0  0  0  0  0  0  0  0
    3.8902  -12.3626   24.2543 H   0  0  0  0  0  0  0  0  0  0  0  0
    2.2561  -12.2593   23.7861 H   0  0  0  0  0  0  0  0  0  0  0  0
    3.3658  -12.0700   22.5035 H   0  0  0  0  0  0  0  0  0  0  0  0
    1.3535  -11.1456   25.9961 H   0  0  0  0  0  0  0  0  0  0  0  0
   -1.1350  -10.5479   26.8809 H   0  0  0  0  0  0  0  0  0  0  0  0
   -2.0855   -8.9344   25.0471 H   0  0  0  0  0  0  0  0  0  0  0  0
   11.8236   -8.3323   22.2335 H   0  0  0  0  0  0  0  0  0  0  0  0
   12.4064   -5.8542   22.3621 H   0  0  0  0  0  0  0  0  0  0  0  0
  1  2  1  0
  2  3  2  0
  3  4  1  0
  4  5  1  0
  5  6  1  0
  6  7  2  0
  6  8  1  0
  8  9  1  0
  8 10  1  0
 10 11  1  0
 11 12  1  0
 12 13  1  0
 12 14  1  0
 14 15  2  0
 14 16  1  0
 16 17  1  0
 17 18  2  0
 18 19  1  0
 19 20  1  0
  4 21  2  0
 21 22  1  0
 22  2  1  0
 20 16  2  0
  1 23  1  0
  1 24  1  0
  1 25  1  0
  5 26  1  0
  5 27  1  0
  9 28  1  0
  9 29  1  0
  9 30  1  0
 10 31  1  0
 10 32  1  0
 11 33  1  0
 11 34  1  0
 13 35  1  0
 13 36  1  0
 13 37  1  0
 17 38  1  0
 18 39  1  0
 19 40  1  0
 21 41  1  0
 22 42  1  0
M  END
>  <Energy>  (851) 
220.85574109468033

>  <compound_id>  (851) 
10608

>  <target_id>  (851) 
1

>  <reference_id>  (851) 
7

>  <inspiration_ids>  (851) 
[80, 7]

>  <energy_score>  (851) 
125.55180462055915

>  <distance_score>  (851) 
15.39067515375473

>  <path>  (851) 
/opt/xchem-fragalysis-2/maxwin/BulkDock/SCRATCH/511020/C10608-P7/C10608-P7.minimised.mol

>  <scratch_subdir>  (851) 
/opt/xchem-fragalysis-2/maxwin/BulkDock/SCRATCH/511020/C10608-P7

>  <fragmenstein_runtime>  (851) 
17.18006944656372

>  <fragmenstein_outcome>  (851) 
too moved

>  <fragmenstein_mode>  (851) 
expansion

>  <fragmenstein_error>  (851) 


$$$$
C10609-P80
     RDKit          3D

 42 43  0  0  0  0  0  0  0  0999 V2000
    6.6461   -1.4623   22.9547 C   0  0  0  0  0  0  0  0  0  0  0  0
    7.3026   -0.8788   24.1408 C   0  0  0  0  0  0  0  0  0  0  0  0
    8.5759   -0.3671   24.1050 N   0  0  0  0  0  0  0  0  0  0  0  0
    8.8256    0.1921   25.3184 C   0  0  0  0  0  0  0  0  0  0  0  0
    7.7897    0.0883   26.1177 N   0  0  0  0  0  0  0  0  0  0  0  0
    6.8255   -0.6227   25.4285 C   0  0  0  0  0  0  0  0  0  0  0  0
    5.4117   -0.8298   25.9713 C   0  0  0  0  0  0  0  0  0  0  0  0
    5.1971   -1.2387   27.4608 C   0  0  0  0  0  0  0  0  0  0  0  0
    6.0754   -1.7431   28.1140 O   0  0  0  0  0  0  0  0  0  0  0  0
    3.7892   -0.9701   27.8012 N   0  0  0  0  0  0  0  0  0  0  0  0
    2.9330   -2.1355   27.4075 C   0  0  0  0  0  0  0  0  0  0  0  0
    3.0247   -1.1431   29.1364 C   0  0  0  0  0  0  0  0  0  0  0  0
    1.7288   -0.2547   29.3267 C   0  0  0  0  0  0  0  0  0  0  0  0
    0.6181   -0.6568   30.3348 N   0  0  0  0  0  0  0  0  0  0  0  0
    1.5550   -0.0014   31.3005 C   0  0  0  0  0  0  0  0  0  0  0  0
   -0.7163   -0.1443   30.5150 C   0  0  0  0  0  0  0  0  0  0  0  0
   -1.2728    0.7840   29.9894 O   0  0  0  0  0  0  0  0  0  0  0  0
   -1.5361   -0.8440   31.5883 C   0  0  0  0  0  0  0  0  0  0  0  0
   -2.8217   -0.3816   32.0361 C   0  0  0  0  0  0  0  0  0  0  0  0
   -3.2444   -1.2474   33.0092 C   0  0  0  0  0  0  0  0  0  0  0  0
   -2.2398   -2.1599   33.1279 N   0  0  0  0  0  0  0  0  0  0  0  0
   -1.2060   -1.9569   32.2767 N   0  0  0  0  0  0  0  0  0  0  0  0
    7.0211   -2.4724   22.7758 H   0  0  0  0  0  0  0  0  0  0  0  0
    5.5646   -1.5071   23.0884 H   0  0  0  0  0  0  0  0  0  0  0  0
    6.8420   -0.8580   22.0634 H   0  0  0  0  0  0  0  0  0  0  0  0
    9.2112   -0.3464   23.3204 H   0  0  0  0  0  0  0  0  0  0  0  0
    9.7640    0.6721   25.5611 H   0  0  0  0  0  0  0  0  0  0  0  0
    4.8557    0.1000   25.8219 H   0  0  0  0  0  0  0  0  0  0  0  0
    4.9270   -1.5936   25.3541 H   0  0  0  0  0  0  0  0  0  0  0  0
    3.2408   -3.0735   27.8839 H   0  0  0  0  0  0  0  0  0  0  0  0
    3.1440   -2.3131   26.3461 H   0  0  0  0  0  0  0  0  0  0  0  0
    1.8496   -1.9752   27.4273 H   0  0  0  0  0  0  0  0  0  0  0  0
    3.7672   -0.7123   29.8260 H   0  0  0  0  0  0  0  0  0  0  0  0
    2.9286   -2.1588   29.5584 H   0  0  0  0  0  0  0  0  0  0  0  0
    1.9517    0.8263   29.2829 H   0  0  0  0  0  0  0  0  0  0  0  0
    1.1586   -0.3467   28.3907 H   0  0  0  0  0  0  0  0  0  0  0  0
    1.0722   -0.0951   32.2853 H   0  0  0  0  0  0  0  0  0  0  0  0
    2.5017   -0.5292   31.4574 H   0  0  0  0  0  0  0  0  0  0  0  0
    1.6463    1.0899   31.1889 H   0  0  0  0  0  0  0  0  0  0  0  0
   -3.3397    0.4798   31.6520 H   0  0  0  0  0  0  0  0  0  0  0  0
   -4.1359   -1.3026   33.6163 H   0  0  0  0  0  0  0  0  0  0  0  0
   -2.2149   -2.9657   33.7538 H   0  0  0  0  0  0  0  0  0  0  0  0
  1  2  1  0
  2  3  1  0
  3  4  1  0
  4  5  2  0
  5  6  1  0
  6  7  1  0
  7  8  1  0
  8  9  2  0
  8 10  1  0
 10 11  1  0
 10 12  1  0
 12 13  1  0
 13 14  1  0
 14 15  1  0
 14 16  1  0
 16 17  2  0
 16 18  1  0
 18 19  1  0
 19 20  2  0
 20 21  1  0
 21 22  1  0
  6  2  2  0
 22 18  2  0
  1 23  1  0
  1 24  1  0
  1 25  1  0
  3 26  1  0
  4 27  1  0
  7 28  1  0
  7 29  1  0
 11 30  1  0
 11 31  1  0
 11 32  1  0
 12 33  1  0
 12 34  1  0
 13 35  1  0
 13 36  1  0
 15 37  1  0
 15 38  1  0
 15 39  1  0
 19 40  1  0
 20 41  1  0
 21 42  1  0
M  END
>  <Energy>  (852) 
219.8783682675778

>  <compound_id>  (852) 
10609

>  <target_id>  (852) 
1

>  <reference_id>  (852) 
80

>  <inspiration_ids>  (852) 
[80, 7]

>  <energy_score>  (852) 
122.05961418106966

>  <distance_score>  (852) 
10.77750492436925

>  <path>  (852) 
/opt/xchem-fragalysis-2/maxwin/BulkDock/SCRATCH/511020/C10609-P80/C10609-P80.minimised.mol

>  <scratch_subdir>  (852) 
/opt/xchem-fragalysis-2/maxwin/BulkDock/SCRATCH/511020/C10609-P80

>  <fragmenstein_runtime>  (852) 
15.234359979629517

>  <fragmenstein_outcome>  (852) 
too moved

>  <fragmenstein_mode>  (852) 
expansion

>  <fragmenstein_error>  (852) 


$$$$
C10609-P7
     RDKit          3D

 42 43  0  0  0  0  0  0  0  0999 V2000
    5.3769    2.8795   23.5431 C   0  0  0  0  0  0  0  0  0  0  0  0
    5.9453    1.5137   23.5800 C   0  0  0  0  0  0  0  0  0  0  0  0
    6.3518    0.8533   22.4496 N   0  0  0  0  0  0  0  0  0  0  0  0
    6.7188   -0.4040   22.8198 C   0  0  0  0  0  0  0  0  0  0  0  0
    6.6845   -0.5530   24.1223 N   0  0  0  0  0  0  0  0  0  0  0  0
    6.0752    0.5946   24.6106 C   0  0  0  0  0  0  0  0  0  0  0  0
    5.6918    0.7237   26.0722 C   0  0  0  0  0  0  0  0  0  0  0  0
    4.1572    0.7704   26.3639 C   0  0  0  0  0  0  0  0  0  0  0  0
    3.4490    1.5554   25.7842 O   0  0  0  0  0  0  0  0  0  0  0  0
    3.8270   -0.2567   27.3307 N   0  0  0  0  0  0  0  0  0  0  0  0
    3.5574   -1.5573   26.6282 C   0  0  0  0  0  0  0  0  0  0  0  0
    2.4716   -0.6064   28.0229 C   0  0  0  0  0  0  0  0  0  0  0  0
    1.9808    0.5846   28.9507 C   0  0  0  0  0  0  0  0  0  0  0  0
    0.8140    0.3000   29.9478 N   0  0  0  0  0  0  0  0  0  0  0  0
    1.9590    0.0551   30.8814 C   0  0  0  0  0  0  0  0  0  0  0  0
   -0.1198   -0.7910   30.0132 C   0  0  0  0  0  0  0  0  0  0  0  0
   -0.1804   -1.8063   29.3692 O   0  0  0  0  0  0  0  0  0  0  0  0
   -1.1898   -0.6050   31.0859 C   0  0  0  0  0  0  0  0  0  0  0  0
   -2.2549   -1.5297   31.3601 C   0  0  0  0  0  0  0  0  0  0  0  0
   -2.9586   -1.0247   32.4268 C   0  0  0  0  0  0  0  0  0  0  0  0
   -2.3166    0.1265   32.7569 N   0  0  0  0  0  0  0  0  0  0  0  0
   -1.2776    0.4289   31.9531 N   0  0  0  0  0  0  0  0  0  0  0  0
    5.8985    3.5005   22.8076 H   0  0  0  0  0  0  0  0  0  0  0  0
    4.3168    2.8440   23.2727 H   0  0  0  0  0  0  0  0  0  0  0  0
    5.4677    3.3698   24.5173 H   0  0  0  0  0  0  0  0  0  0  0  0
    6.2313    1.1853   21.5052 H   0  0  0  0  0  0  0  0  0  0  0  0
    6.9526   -1.1750   22.1057 H   0  0  0  0  0  0  0  0  0  0  0  0
    6.1556   -0.0970   26.6322 H   0  0  0  0  0  0  0  0  0  0  0  0
    6.1174    1.6520   26.4727 H   0  0  0  0  0  0  0  0  0  0  0  0
    4.4498   -1.7404   26.0150 H   0  0  0  0  0  0  0  0  0  0  0  0
    2.7705   -1.4791   25.8758 H   0  0  0  0  0  0  0  0  0  0  0  0
    3.5038   -2.4481   27.2677 H   0  0  0  0  0  0  0  0  0  0  0  0
    1.6396   -0.7362   27.3141 H   0  0  0  0  0  0  0  0  0  0  0  0
    2.5932   -1.4823   28.6741 H   0  0  0  0  0  0  0  0  0  0  0  0
    2.8050    1.2323   29.2964 H   0  0  0  0  0  0  0  0  0  0  0  0
    1.4741    1.2629   28.2446 H   0  0  0  0  0  0  0  0  0  0  0  0
    2.6246   -0.7789   30.6238 H   0  0  0  0  0  0  0  0  0  0  0  0
    1.5115   -0.2790   31.8295 H   0  0  0  0  0  0  0  0  0  0  0  0
    2.4823    0.9775   31.1736 H   0  0  0  0  0  0  0  0  0  0  0  0
   -2.4379   -2.4517   30.8280 H   0  0  0  0  0  0  0  0  0  0  0  0
   -3.8098   -1.3920   32.9818 H   0  0  0  0  0  0  0  0  0  0  0  0
   -2.5183    0.7558   33.5264 H   0  0  0  0  0  0  0  0  0  0  0  0
  1  2  1  0
  2  3  1  0
  3  4  1  0
  4  5  2  0
  5  6  1  0
  6  7  1  0
  7  8  1  0
  8  9  2  0
  8 10  1  0
 10 11  1  0
 10 12  1  0
 12 13  1  0
 13 14  1  0
 14 15  1  0
 14 16  1  0
 16 17  2  0
 16 18  1  0
 18 19  1  0
 19 20  2  0
 20 21  1  0
 21 22  1  0
  6  2  2  0
 22 18  2  0
  1 23  1  0
  1 24  1  0
  1 25  1  0
  3 26  1  0
  4 27  1  0
  7 28  1  0
  7 29  1  0
 11 30  1  0
 11 31  1  0
 11 32  1  0
 12 33  1  0
 12 34  1  0
 13 35  1  0
 13 36  1  0
 15 37  1  0
 15 38  1  0
 15 39  1  0
 19 40  1  0
 20 41  1  0
 21 42  1  0
M  END
>  <Energy>  (853) 
205.48550246782474

>  <compound_id>  (853) 
10609

>  <target_id>  (853) 
1

>  <reference_id>  (853) 
7

>  <inspiration_ids>  (853) 
[80, 7]

>  <energy_score>  (853) 
107.66674838132292

>  <distance_score>  (853) 
11.076387777179953

>  <path>  (853) 
/opt/xchem-fragalysis-2/maxwin/BulkDock/SCRATCH/511020/C10609-P7/C10609-P7.minimised.mol

>  <scratch_subdir>  (853) 
/opt/xchem-fragalysis-2/maxwin/BulkDock/SCRATCH/511020/C10609-P7

>  <fragmenstein_runtime>  (853) 
23.441179752349854

>  <fragmenstein_outcome>  (853) 
too moved

>  <fragmenstein_mode>  (853) 
expansion

>  <fragmenstein_error>  (853) 


$$$$
C10611-P80
     RDKit          3D

 45 46  0  0  0  0  0  0  0  0999 V2000
    0.2821    1.5336   31.3591 C   0  0  0  0  0  0  0  0  0  0  0  0
   -0.5898    0.5187   30.6287 C   0  0  0  0  0  0  0  0  0  0  0  0
   -0.8254    0.8643   29.0960 C   0  0  0  0  0  0  0  0  0  0  0  0
    0.2043    1.3718   28.0386 N   0  0  0  0  0  0  0  0  0  0  0  0
    0.8119    0.0289   28.3017 C   0  0  0  0  0  0  0  0  0  0  0  0
    1.2181    2.4039   28.1249 C   0  0  0  0  0  0  0  0  0  0  0  0
    1.5807    3.0666   29.0629 O   0  0  0  0  0  0  0  0  0  0  0  0
    1.8172    2.7009   26.6900 C   0  0  0  0  0  0  0  0  0  0  0  0
    0.6779    3.0931   25.7426 C   0  0  0  0  0  0  0  0  0  0  0  0
    2.8981    3.8282   26.7568 C   0  0  0  0  0  0  0  0  0  0  0  0
    3.8266    4.0600   25.6421 N   0  0  0  0  0  0  0  0  0  0  0  0
    5.1671    4.3518   25.8063 C   0  0  0  0  0  0  0  0  0  0  0  0
    5.6219    4.7653   24.5751 C   0  0  0  0  0  0  0  0  0  0  0  0
    4.6225    4.6762   23.6475 N   0  0  0  0  0  0  0  0  0  0  0  0
    3.5488    4.3108   24.3231 C   0  0  0  0  0  0  0  0  0  0  0  0
   -1.8572    0.3669   31.3942 N   0  0  0  0  0  0  0  0  0  0  0  0
   -2.5363   -0.8080   31.8722 C   0  0  0  0  0  0  0  0  0  0  0  0
   -2.2967   -1.9702   31.7083 O   0  0  0  0  0  0  0  0  0  0  0  0
   -3.7269   -0.4623   32.7438 C   0  0  0  0  0  0  0  0  0  0  0  0
   -4.6121   -1.4019   33.3664 C   0  0  0  0  0  0  0  0  0  0  0  0
   -5.5458   -0.6641   34.0499 C   0  0  0  0  0  0  0  0  0  0  0  0
   -5.1946    0.6340   33.8535 N   0  0  0  0  0  0  0  0  0  0  0  0
   -4.1293    0.8004   33.0296 N   0  0  0  0  0  0  0  0  0  0  0  0
    0.3174    1.3143   32.4325 H   0  0  0  0  0  0  0  0  0  0  0  0
   -0.1075    2.5498   31.2468 H   0  0  0  0  0  0  0  0  0  0  0  0
    1.3120    1.5093   30.9956 H   0  0  0  0  0  0  0  0  0  0  0  0
   -0.1096   -0.4642   30.6979 H   0  0  0  0  0  0  0  0  0  0  0  0
   -1.4824    1.7449   29.1355 H   0  0  0  0  0  0  0  0  0  0  0  0
   -1.4940    0.1185   28.6309 H   0  0  0  0  0  0  0  0  0  0  0  0
    1.3970   -0.0158   29.2281 H   0  0  0  0  0  0  0  0  0  0  0  0
    1.5893   -0.0814   27.5312 H   0  0  0  0  0  0  0  0  0  0  0  0
    0.1698   -0.8456   28.1209 H   0  0  0  0  0  0  0  0  0  0  0  0
    2.2972    1.7817   26.3380 H   0  0  0  0  0  0  0  0  0  0  0  0
    0.9972    3.0511   24.7000 H   0  0  0  0  0  0  0  0  0  0  0  0
   -0.1860    2.4278   25.8259 H   0  0  0  0  0  0  0  0  0  0  0  0
    0.3197    4.1062   25.9554 H   0  0  0  0  0  0  0  0  0  0  0  0
    3.5416    3.6317   27.6246 H   0  0  0  0  0  0  0  0  0  0  0  0
    2.4179    4.7981   26.9418 H   0  0  0  0  0  0  0  0  0  0  0  0
    5.6562    4.2838   26.7680 H   0  0  0  0  0  0  0  0  0  0  0  0
    6.6158    5.0988   24.3079 H   0  0  0  0  0  0  0  0  0  0  0  0
    2.5625    4.2267   23.8910 H   0  0  0  0  0  0  0  0  0  0  0  0
   -2.3910    1.1889   31.6619 H   0  0  0  0  0  0  0  0  0  0  0  0
   -4.5542   -2.4793   33.3066 H   0  0  0  0  0  0  0  0  0  0  0  0
   -6.3945   -0.9432   34.6582 H   0  0  0  0  0  0  0  0  0  0  0  0
   -5.6423    1.4597   34.2408 H   0  0  0  0  0  0  0  0  0  0  0  0
  1  2  1  0
  2  3  1  0
  3  4  1  0
  4  5  1  0
  4  6  1  0
  6  7  2  0
  6  8  1  0
  8  9  1  0
  8 10  1  0
 10 11  1  0
 11 12  1  0
 12 13  2  0
 13 14  1  0
 14 15  2  0
  2 16  1  0
 16 17  1  0
 17 18  2  0
 17 19  1  0
 19 20  1  0
 20 21  2  0
 21 22  1  0
 22 23  1  0
 15 11  1  0
 23 19  2  0
  1 24  1  0
  1 25  1  0
  1 26  1  0
  2 27  1  0
  3 28  1  0
  3 29  1  0
  5 30  1  0
  5 31  1  0
  5 32  1  0
  8 33  1  0
  9 34  1  0
  9 35  1  0
  9 36  1  0
 10 37  1  0
 10 38  1  0
 12 39  1  0
 13 40  1  0
 15 41  1  0
 16 42  1  0
 20 43  1  0
 21 44  1  0
 22 45  1  0
M  END
>  <Energy>  (854) 
108.79452182004816

>  <compound_id>  (854) 
10611

>  <target_id>  (854) 
1

>  <reference_id>  (854) 
80

>  <inspiration_ids>  (854) 
[80, 7]

>  <energy_score>  (854) 
34.825476692244564

>  <distance_score>  (854) 
11.258807984295549

>  <path>  (854) 
/opt/xchem-fragalysis-2/maxwin/BulkDock/SCRATCH/511020/C10611-P80/C10611-P80.minimised.mol

>  <scratch_subdir>  (854) 
/opt/xchem-fragalysis-2/maxwin/BulkDock/SCRATCH/511020/C10611-P80

>  <fragmenstein_runtime>  (854) 
19.80217981338501

>  <fragmenstein_outcome>  (854) 
too moved

>  <fragmenstein_mode>  (854) 
expansion

>  <fragmenstein_error>  (854) 


$$$$
C10611-P7
     RDKit          3D

 45 46  0  0  0  0  0  0  0  0999 V2000
    4.0174   -1.0633   29.7937 C   0  0  0  0  0  0  0  0  0  0  0  0
    3.0449   -2.0803   29.1995 C   0  0  0  0  0  0  0  0  0  0  0  0
    3.2034   -2.2882   27.6359 C   0  0  0  0  0  0  0  0  0  0  0  0
    3.7460   -1.2740   26.6463 N   0  0  0  0  0  0  0  0  0  0  0  0
    2.4415   -0.6375   26.9116 C   0  0  0  0  0  0  0  0  0  0  0  0
    3.9847   -1.3882   25.1476 C   0  0  0  0  0  0  0  0  0  0  0  0
    3.7156   -2.2775   24.3826 O   0  0  0  0  0  0  0  0  0  0  0  0
    4.6534    0.0263   24.5699 C   0  0  0  0  0  0  0  0  0  0  0  0
    5.3836    0.4880   26.0525 C   0  0  0  0  0  0  0  0  0  0  0  0
    4.7778    0.5883   22.6296 C   0  0  0  0  0  0  0  0  0  0  0  0
    6.1472    0.7102   21.4598 N   0  0  0  0  0  0  0  0  0  0  0  0
    6.9685   -0.3789   20.4284 C   0  0  0  0  0  0  0  0  0  0  0  0
    7.3354    0.2933   19.3161 C   0  0  0  0  0  0  0  0  0  0  0  0
    7.5703    1.7062   19.7490 N   0  0  0  0  0  0  0  0  0  0  0  0
    7.2263    1.9056   21.0655 C   0  0  0  0  0  0  0  0  0  0  0  0
    1.6722   -1.8897   29.7208 N   0  0  0  0  0  0  0  0  0  0  0  0
    0.9950   -2.4941   30.8391 C   0  0  0  0  0  0  0  0  0  0  0  0
    1.3426   -3.3628   31.5846 O   0  0  0  0  0  0  0  0  0  0  0  0
   -0.3775   -1.9107   31.0770 C   0  0  0  0  0  0  0  0  0  0  0  0
   -1.3010   -2.3029   32.1073 C   0  0  0  0  0  0  0  0  0  0  0  0
   -2.4070   -1.5002   31.9632 C   0  0  0  0  0  0  0  0  0  0  0  0
   -2.1194   -0.6891   30.9066 N   0  0  0  0  0  0  0  0  0  0  0  0
   -0.9140   -0.9119   30.3462 N   0  0  0  0  0  0  0  0  0  0  0  0
    5.0398   -1.2573   29.4536 H   0  0  0  0  0  0  0  0  0  0  0  0
    4.0107   -1.1230   30.8880 H   0  0  0  0  0  0  0  0  0  0  0  0
    3.7568   -0.0344   29.5303 H   0  0  0  0  0  0  0  0  0  0  0  0
    3.3313   -3.0480   29.6362 H   0  0  0  0  0  0  0  0  0  0  0  0
    4.0679   -2.9559   27.6034 H   0  0  0  0  0  0  0  0  0  0  0  0
    2.4034   -2.9179   27.2158 H   0  0  0  0  0  0  0  0  0  0  0  0
    2.3660   -0.1836   27.9047 H   0  0  0  0  0  0  0  0  0  0  0  0
    2.4490    0.2807   26.3229 H   0  0  0  0  0  0  0  0  0  0  0  0
    1.5459   -1.2064   26.6692 H   0  0  0  0  0  0  0  0  0  0  0  0
    3.7695    0.6858   24.7376 H   0  0  0  0  0  0  0  0  0  0  0  0
    5.8369   -0.3891   26.5383 H   0  0  0  0  0  0  0  0  0  0  0  0
    6.1664    1.2518   26.1326 H   0  0  0  0  0  0  0  0  0  0  0  0
    4.6105    0.9015   26.7144 H   0  0  0  0  0  0  0  0  0  0  0  0
    3.9854    1.3182   22.3712 H   0  0  0  0  0  0  0  0  0  0  0  0
    4.5858   -0.3303   22.0579 H   0  0  0  0  0  0  0  0  0  0  0  0
    6.8175   -1.4044   20.7141 H   0  0  0  0  0  0  0  0  0  0  0  0
    7.4977    0.0330   18.2838 H   0  0  0  0  0  0  0  0  0  0  0  0
    7.0437    2.9245   21.4266 H   0  0  0  0  0  0  0  0  0  0  0  0
    1.0392   -1.2361   29.2645 H   0  0  0  0  0  0  0  0  0  0  0  0
   -1.1267   -3.0768   32.8438 H   0  0  0  0  0  0  0  0  0  0  0  0
   -3.3403   -1.4254   32.5007 H   0  0  0  0  0  0  0  0  0  0  0  0
   -2.6966    0.0390   30.4990 H   0  0  0  0  0  0  0  0  0  0  0  0
  1  2  1  0
  2  3  1  0
  3  4  1  0
  4  5  1  0
  4  6  1  0
  6  7  2  0
  6  8  1  0
  8  9  1  0
  8 10  1  0
 10 11  1  0
 11 12  1  0
 12 13  2  0
 13 14  1  0
 14 15  2  0
  2 16  1  0
 16 17  1  0
 17 18  2  0
 17 19  1  0
 19 20  1  0
 20 21  2  0
 21 22  1  0
 22 23  1  0
 15 11  1  0
 23 19  2  0
  1 24  1  0
  1 25  1  0
  1 26  1  0
  2 27  1  0
  3 28  1  0
  3 29  1  0
  5 30  1  0
  5 31  1  0
  5 32  1  0
  8 33  1  0
  9 34  1  0
  9 35  1  0
  9 36  1  0
 10 37  1  0
 10 38  1  0
 12 39  1  0
 13 40  1  0
 15 41  1  0
 16 42  1  0
 20 43  1  0
 21 44  1  0
 22 45  1  0
M  END
>  <Energy>  (855) 
375.64184858800201

>  <compound_id>  (855) 
10611

>  <target_id>  (855) 
1

>  <reference_id>  (855) 
7

>  <inspiration_ids>  (855) 
[80, 7]

>  <energy_score>  (855) 
301.672803460202

>  <distance_score>  (855) 
10.311372097319337

>  <path>  (855) 
/opt/xchem-fragalysis-2/maxwin/BulkDock/SCRATCH/511020/C10611-P7/C10611-P7.minimised.mol

>  <scratch_subdir>  (855) 
/opt/xchem-fragalysis-2/maxwin/BulkDock/SCRATCH/511020/C10611-P7

>  <fragmenstein_runtime>  (855) 
14.803222417831421

>  <fragmenstein_outcome>  (855) 
too moved

>  <fragmenstein_mode>  (855) 
expansion

>  <fragmenstein_error>  (855) 


$$$$
C10612-P80
     RDKit          3D

 29 31  0  0  0  0  0  0  0  0999 V2000
    5.2509   -1.4630   27.7750 N   0  0  0  0  0  0  0  0  0  0  0  0
    4.4122   -0.9150   26.6768 C   0  0  0  0  0  0  0  0  0  0  0  0
    5.2448    0.1468   25.8707 C   0  0  0  0  0  0  0  0  0  0  0  0
    6.1742   -0.2882   24.7644 C   0  0  0  0  0  0  0  0  0  0  0  0
    7.3879    0.2696   24.4016 C   0  0  0  0  0  0  0  0  0  0  0  0
    7.7068   -0.2870   23.1962 N   0  0  0  0  0  0  0  0  0  0  0  0
    6.7136   -1.1594   22.8735 C   0  0  0  0  0  0  0  0  0  0  0  0
    5.7989   -1.1990   23.8116 N   0  0  0  0  0  0  0  0  0  0  0  0
    3.1284   -0.3047   27.2926 C   0  0  0  0  0  0  0  0  0  0  0  0
    2.7839    0.9649   27.3759 N   0  0  0  0  0  0  0  0  0  0  0  0
    1.6085    1.0237   28.1068 N   0  0  0  0  0  0  0  0  0  0  0  0
    1.2761   -0.2104   28.4558 C   0  0  0  0  0  0  0  0  0  0  0  0
   -0.0549   -0.5492   29.3668 C   0  0  0  0  0  0  0  0  0  0  0  0
   -0.4977   -1.8348   29.7797 C   0  0  0  0  0  0  0  0  0  0  0  0
   -1.6411   -1.6221   30.5213 C   0  0  0  0  0  0  0  0  0  0  0  0
   -1.8470   -0.2771   30.4940 N   0  0  0  0  0  0  0  0  0  0  0  0
   -0.8836    0.4004   29.8474 N   0  0  0  0  0  0  0  0  0  0  0  0
    2.2231   -1.1233   27.9722 O   0  0  0  0  0  0  0  0  0  0  0  0
    5.2611   -0.8029   28.5492 H   0  0  0  0  0  0  0  0  0  0  0  0
    4.8021   -2.3149   28.1038 H   0  0  0  0  0  0  0  0  0  0  0  0
    4.1099   -1.7303   26.0096 H   0  0  0  0  0  0  0  0  0  0  0  0
    4.5456    0.8530   25.4024 H   0  0  0  0  0  0  0  0  0  0  0  0
    5.8163    0.7596   26.5831 H   0  0  0  0  0  0  0  0  0  0  0  0
    7.9965    1.0340   24.8632 H   0  0  0  0  0  0  0  0  0  0  0  0
    8.5307   -0.0862   22.6492 H   0  0  0  0  0  0  0  0  0  0  0  0
    6.6835   -1.7379   21.9608 H   0  0  0  0  0  0  0  0  0  0  0  0
   -0.0444   -2.7871   29.5436 H   0  0  0  0  0  0  0  0  0  0  0  0
   -2.3255   -2.2976   31.0133 H   0  0  0  0  0  0  0  0  0  0  0  0
   -2.6179    0.2526   30.8858 H   0  0  0  0  0  0  0  0  0  0  0  0
  1  2  1  0
  2  3  1  0
  3  4  1  0
  4  5  2  0
  5  6  1  0
  6  7  1  0
  7  8  2  0
  2  9  1  0
  9 10  2  0
 10 11  1  0
 11 12  2  0
 12 13  1  0
 13 14  1  0
 14 15  2  0
 15 16  1  0
 16 17  1  0
 12 18  1  0
  8  4  1  0
 18  9  1  0
 17 13  2  0
  1 19  1  0
  1 20  1  0
  2 21  1  0
  3 22  1  0
  3 23  1  0
  5 24  1  0
  6 25  1  0
  7 26  1  0
 14 27  1  0
 15 28  1  0
 16 29  1  0
M  END
>  <Energy>  (856) 
84.611666657717109

>  <compound_id>  (856) 
10612

>  <target_id>  (856) 
1

>  <reference_id>  (856) 
80

>  <inspiration_ids>  (856) 
[80, 7]

>  <energy_score>  (856) 
-28.849468104217692

>  <distance_score>  (856) 
12.0954277997808

>  <path>  (856) 
/opt/xchem-fragalysis-2/maxwin/BulkDock/SCRATCH/511020/C10612-P80/C10612-P80.minimised.mol

>  <scratch_subdir>  (856) 
/opt/xchem-fragalysis-2/maxwin/BulkDock/SCRATCH/511020/C10612-P80

>  <fragmenstein_runtime>  (856) 
5.220313787460327

>  <fragmenstein_outcome>  (856) 
too moved

>  <fragmenstein_mode>  (856) 
expansion

>  <fragmenstein_error>  (856) 


$$$$
C10612-P7
     RDKit          3D

 29 31  0  0  0  0  0  0  0  0999 V2000
    6.1469   -1.0190   26.9812 N   0  0  0  0  0  0  0  0  0  0  0  0
    5.4212   -0.3730   25.8406 C   0  0  0  0  0  0  0  0  0  0  0  0
    5.6573   -1.2207   24.5435 C   0  0  0  0  0  0  0  0  0  0  0  0
    6.0764   -0.5468   23.2541 C   0  0  0  0  0  0  0  0  0  0  0  0
    5.8946   -1.0223   21.9643 C   0  0  0  0  0  0  0  0  0  0  0  0
    6.3019   -0.0177   21.1363 N   0  0  0  0  0  0  0  0  0  0  0  0
    6.7862    0.9790   21.9289 C   0  0  0  0  0  0  0  0  0  0  0  0
    6.7514    0.6517   23.2001 N   0  0  0  0  0  0  0  0  0  0  0  0
    3.9601   -0.0697   26.2797 C   0  0  0  0  0  0  0  0  0  0  0  0
    3.3856    1.1219   26.2945 N   0  0  0  0  0  0  0  0  0  0  0  0
    2.2485    1.0352   27.0786 N   0  0  0  0  0  0  0  0  0  0  0  0
    2.1440   -0.2114   27.5164 C   0  0  0  0  0  0  0  0  0  0  0  0
    0.8397   -0.6679   28.4369 C   0  0  0  0  0  0  0  0  0  0  0  0
   -0.2233    0.2154   28.8150 C   0  0  0  0  0  0  0  0  0  0  0  0
   -1.1334   -0.5542   29.5049 C   0  0  0  0  0  0  0  0  0  0  0  0
   -0.6180   -1.8161   29.4907 N   0  0  0  0  0  0  0  0  0  0  0  0
    0.6086   -1.8996   28.9280 N   0  0  0  0  0  0  0  0  0  0  0  0
    3.2357   -0.9778   27.0735 O   0  0  0  0  0  0  0  0  0  0  0  0
    5.7947   -0.6208   27.8492 H   0  0  0  0  0  0  0  0  0  0  0  0
    5.8731   -2.0093   26.9818 H   0  0  0  0  0  0  0  0  0  0  0  0
    5.8987    0.6056   25.7081 H   0  0  0  0  0  0  0  0  0  0  0  0
    4.7646   -1.8291   24.3643 H   0  0  0  0  0  0  0  0  0  0  0  0
    6.4844   -1.9190   24.7261 H   0  0  0  0  0  0  0  0  0  0  0  0
    5.4194   -1.9169   21.5879 H   0  0  0  0  0  0  0  0  0  0  0  0
    6.1696    0.0126   20.1360 H   0  0  0  0  0  0  0  0  0  0  0  0
    7.1270    1.9262   21.5419 H   0  0  0  0  0  0  0  0  0  0  0  0
   -0.3021    1.2669   28.5759 H   0  0  0  0  0  0  0  0  0  0  0  0
   -2.0898   -0.3295   29.9522 H   0  0  0  0  0  0  0  0  0  0  0  0
   -1.0385   -2.6696   29.8432 H   0  0  0  0  0  0  0  0  0  0  0  0
  1  2  1  0
  2  3  1  0
  3  4  1  0
  4  5  2  0
  5  6  1  0
  6  7  1  0
  7  8  2  0
  2  9  1  0
  9 10  2  0
 10 11  1  0
 11 12  2  0
 12 13  1  0
 13 14  1  0
 14 15  2  0
 15 16  1  0
 16 17  1  0
 12 18  1  0
  8  4  1  0
 18  9  1  0
 17 13  2  0
  1 19  1  0
  1 20  1  0
  2 21  1  0
  3 22  1  0
  3 23  1  0
  5 24  1  0
  6 25  1  0
  7 26  1  0
 14 27  1  0
 15 28  1  0
 16 29  1  0
M  END
>  <Energy>  (857) 
89.841366307998214

>  <compound_id>  (857) 
10612

>  <target_id>  (857) 
1

>  <reference_id>  (857) 
7

>  <inspiration_ids>  (857) 
[80, 7]

>  <energy_score>  (857) 
-23.619768453937752

>  <distance_score>  (857) 
12.23013486204649

>  <path>  (857) 
/opt/xchem-fragalysis-2/maxwin/BulkDock/SCRATCH/511020/C10612-P7/C10612-P7.minimised.mol

>  <scratch_subdir>  (857) 
/opt/xchem-fragalysis-2/maxwin/BulkDock/SCRATCH/511020/C10612-P7

>  <fragmenstein_runtime>  (857) 
4.797422885894775

>  <fragmenstein_outcome>  (857) 
too moved

>  <fragmenstein_mode>  (857) 
expansion

>  <fragmenstein_error>  (857) 


$$$$
C10614-P80
     RDKit          3D

 38 42  0  0  0  0  0  0  0  0999 V2000
    9.3878   -0.1614   15.8227 C   0  0  0  0  0  0  0  0  0  0  0  0
    9.3855    1.1862   15.9410 C   0  0  0  0  0  0  0  0  0  0  0  0
    8.5444    1.5516   17.0028 N   0  0  0  0  0  0  0  0  0  0  0  0
    8.2961    2.9752   17.2151 C   0  0  0  0  0  0  0  0  0  0  0  0
    9.3139    3.8943   16.8181 C   0  0  0  0  0  0  0  0  0  0  0  0
    9.1757    5.2843   16.9428 C   0  0  0  0  0  0  0  0  0  0  0  0
    8.0031    5.7738   17.4672 C   0  0  0  0  0  0  0  0  0  0  0  0
    6.9996    4.9104   17.8587 C   0  0  0  0  0  0  0  0  0  0  0  0
    7.1305    3.5276   17.7511 C   0  0  0  0  0  0  0  0  0  0  0  0
    5.8352    5.7039   18.3290 C   0  0  0  0  0  0  0  0  0  0  0  0
    6.3566    7.0448   18.4770 O   0  0  0  0  0  0  0  0  0  0  0  0
    7.5688    7.1731   17.6949 C   0  0  0  0  0  0  0  0  0  0  0  0
    8.1543    0.2656   17.6305 C   0  0  0  0  0  0  0  0  0  0  0  0
    7.3469   -0.1280   19.1752 C   0  0  0  0  0  0  0  0  0  0  0  0
    6.7328    0.7593   20.0782 C   0  0  0  0  0  0  0  0  0  0  0  0
    6.1667    0.0378   21.1507 C   0  0  0  0  0  0  0  0  0  0  0  0
    6.6484   -1.2382   21.1348 C   0  0  0  0  0  0  0  0  0  0  0  0
    6.0959   -2.4010   22.2624 C   0  0  0  0  0  0  0  0  0  0  0  0
    5.2370   -2.1539   23.4039 C   0  0  0  0  0  0  0  0  0  0  0  0
    4.6381   -3.3542   23.7072 C   0  0  0  0  0  0  0  0  0  0  0  0
    5.3459   -4.2669   22.9954 N   0  0  0  0  0  0  0  0  0  0  0  0
    6.2052   -3.7280   22.0877 N   0  0  0  0  0  0  0  0  0  0  0  0
    7.5088   -1.2805   20.0275 O   0  0  0  0  0  0  0  0  0  0  0  0
    8.6870   -0.6850   16.8498 N   0  0  0  0  0  0  0  0  0  0  0  0
    9.8747   -0.7815   15.0786 H   0  0  0  0  0  0  0  0  0  0  0  0
    9.8438    1.9174   15.2948 H   0  0  0  0  0  0  0  0  0  0  0  0
   10.2873    3.5490   16.4729 H   0  0  0  0  0  0  0  0  0  0  0  0
    9.9852    5.9468   16.6525 H   0  0  0  0  0  0  0  0  0  0  0  0
    6.2731    2.9637   18.0599 H   0  0  0  0  0  0  0  0  0  0  0  0
    5.0293    5.7174   17.5892 H   0  0  0  0  0  0  0  0  0  0  0  0
    5.4630    5.3670   19.2999 H   0  0  0  0  0  0  0  0  0  0  0  0
    7.3292    7.6814   16.7564 H   0  0  0  0  0  0  0  0  0  0  0  0
    8.2949    7.7501   18.2733 H   0  0  0  0  0  0  0  0  0  0  0  0
    6.5969    1.8109   19.8987 H   0  0  0  0  0  0  0  0  0  0  0  0
    5.4508    0.3848   21.8722 H   0  0  0  0  0  0  0  0  0  0  0  0
    4.9266   -1.2115   23.8194 H   0  0  0  0  0  0  0  0  0  0  0  0
    3.8483   -3.6251   24.3922 H   0  0  0  0  0  0  0  0  0  0  0  0
    5.2826   -5.2768   23.0500 H   0  0  0  0  0  0  0  0  0  0  0  0
  1  2  2  0
  2  3  1  0
  3  4  1  0
  4  5  2  0
  5  6  1  0
  6  7  2  0
  7  8  1  0
  8  9  2  0
  8 10  1  0
 10 11  1  0
 11 12  1  0
  3 13  1  0
 13 14  1  0
 14 15  2  0
 15 16  1  0
 16 17  2  0
 17 18  1  0
 18 19  1  0
 19 20  2  0
 20 21  1  0
 21 22  1  0
 17 23  1  0
 13 24  2  0
 24  1  1  0
  9  4  1  0
 23 14  1  0
 12  7  1  0
 22 18  2  0
  1 25  1  0
  2 26  1  0
  5 27  1  0
  6 28  1  0
  9 29  1  0
 10 30  1  0
 10 31  1  0
 12 32  1  0
 12 33  1  0
 15 34  1  0
 16 35  1  0
 19 36  1  0
 20 37  1  0
 21 38  1  0
M  END
>  <Energy>  (858) 
173.7002342060284

>  <compound_id>  (858) 
10614

>  <target_id>  (858) 
1

>  <reference_id>  (858) 
80

>  <inspiration_ids>  (858) 
[80, 7]

>  <energy_score>  (858) 
43.4137185384144

>  <distance_score>  (858) 
16.7419882673148

>  <path>  (858) 
/opt/xchem-fragalysis-2/maxwin/BulkDock/SCRATCH/511020/C10614-P80/C10614-P80.minimised.mol

>  <scratch_subdir>  (858) 
/opt/xchem-fragalysis-2/maxwin/BulkDock/SCRATCH/511020/C10614-P80

>  <fragmenstein_runtime>  (858) 
7.642486333847046

>  <fragmenstein_outcome>  (858) 
too moved

>  <fragmenstein_mode>  (858) 
expansion

>  <fragmenstein_error>  (858) 


$$$$
C10614-P7
     RDKit          3D

 38 42  0  0  0  0  0  0  0  0999 V2000
    2.6745    3.4302   22.5982 C   0  0  0  0  0  0  0  0  0  0  0  0
    1.9366    3.2064   21.4748 C   0  0  0  0  0  0  0  0  0  0  0  0
    0.6008    3.3016   21.9160 N   0  0  0  0  0  0  0  0  0  0  0  0
   -0.5278    3.5580   21.0667 C   0  0  0  0  0  0  0  0  0  0  0  0
   -0.3226    4.0565   19.7587 C   0  0  0  0  0  0  0  0  0  0  0  0
   -1.4005    4.3333   18.9092 C   0  0  0  0  0  0  0  0  0  0  0  0
   -2.6794    4.1079   19.3781 C   0  0  0  0  0  0  0  0  0  0  0  0
   -2.8920    3.6075   20.6498 C   0  0  0  0  0  0  0  0  0  0  0  0
   -1.8360    3.3196   21.5036 C   0  0  0  0  0  0  0  0  0  0  0  0
   -4.3480    3.4223   20.8668 C   0  0  0  0  0  0  0  0  0  0  0  0
   -4.9755    4.0386   19.7171 O   0  0  0  0  0  0  0  0  0  0  0  0
   -3.9824    4.2893   18.6943 C   0  0  0  0  0  0  0  0  0  0  0  0
    0.6068    3.2923   23.3666 C   0  0  0  0  0  0  0  0  0  0  0  0
   -0.6019    3.4891   24.5103 C   0  0  0  0  0  0  0  0  0  0  0  0
   -0.4655    4.2989   25.6458 C   0  0  0  0  0  0  0  0  0  0  0  0
   -1.6438    4.3070   26.5017 C   0  0  0  0  0  0  0  0  0  0  0  0
   -2.6354    3.4584   26.0219 C   0  0  0  0  0  0  0  0  0  0  0  0
   -4.3151    3.2468   26.9713 C   0  0  0  0  0  0  0  0  0  0  0  0
   -4.7694    4.0196   28.1233 C   0  0  0  0  0  0  0  0  0  0  0  0
   -6.0555    3.6222   28.4741 C   0  0  0  0  0  0  0  0  0  0  0  0
   -6.3756    2.7299   27.5075 N   0  0  0  0  0  0  0  0  0  0  0  0
   -5.3518    2.4493   26.6336 N   0  0  0  0  0  0  0  0  0  0  0  0
   -2.0109    2.9061   24.7589 O   0  0  0  0  0  0  0  0  0  0  0  0
    1.9072    3.3300   23.7282 N   0  0  0  0  0  0  0  0  0  0  0  0
    3.6840    3.7680   22.7038 H   0  0  0  0  0  0  0  0  0  0  0  0
    2.1871    3.1530   20.4271 H   0  0  0  0  0  0  0  0  0  0  0  0
    0.6744    4.2559   19.3755 H   0  0  0  0  0  0  0  0  0  0  0  0
   -1.2265    4.7156   17.9081 H   0  0  0  0  0  0  0  0  0  0  0  0
   -2.0593    2.8621   22.4560 H   0  0  0  0  0  0  0  0  0  0  0  0
   -4.6220    2.3637   20.8833 H   0  0  0  0  0  0  0  0  0  0  0  0
   -4.7036    3.9267   21.7691 H   0  0  0  0  0  0  0  0  0  0  0  0
   -4.1215    3.5625   17.8888 H   0  0  0  0  0  0  0  0  0  0  0  0
   -4.1194    5.3076   18.3210 H   0  0  0  0  0  0  0  0  0  0  0  0
    0.4340    4.8683   25.8462 H   0  0  0  0  0  0  0  0  0  0  0  0
   -1.7285    4.8847   27.4134 H   0  0  0  0  0  0  0  0  0  0  0  0
   -4.2067    4.8328   28.5477 H   0  0  0  0  0  0  0  0  0  0  0  0
   -6.7627    3.9586   29.2181 H   0  0  0  0  0  0  0  0  0  0  0  0
   -7.2624    2.2609   27.3546 H   0  0  0  0  0  0  0  0  0  0  0  0
  1  2  2  0
  2  3  1  0
  3  4  1  0
  4  5  2  0
  5  6  1  0
  6  7  2  0
  7  8  1  0
  8  9  2  0
  8 10  1  0
 10 11  1  0
 11 12  1  0
  3 13  1  0
 13 14  1  0
 14 15  2  0
 15 16  1  0
 16 17  2  0
 17 18  1  0
 18 19  1  0
 19 20  2  0
 20 21  1  0
 21 22  1  0
 17 23  1  0
 13 24  2  0
 24  1  1  0
  9  4  1  0
 23 14  1  0
 12  7  1  0
 22 18  2  0
  1 25  1  0
  2 26  1  0
  5 27  1  0
  6 28  1  0
  9 29  1  0
 10 30  1  0
 10 31  1  0
 12 32  1  0
 12 33  1  0
 15 34  1  0
 16 35  1  0
 19 36  1  0
 20 37  1  0
 21 38  1  0
M  END
>  <Energy>  (859) 
177.11624063286345

>  <compound_id>  (859) 
10614

>  <target_id>  (859) 
1

>  <reference_id>  (859) 
7

>  <inspiration_ids>  (859) 
[80, 7]

>  <energy_score>  (859) 
48.18735111499143

>  <distance_score>  (859) 
12.960377653114573

>  <path>  (859) 
/opt/xchem-fragalysis-2/maxwin/BulkDock/SCRATCH/511020/C10614-P7/C10614-P7.minimised.mol

>  <scratch_subdir>  (859) 
/opt/xchem-fragalysis-2/maxwin/BulkDock/SCRATCH/511020/C10614-P7

>  <fragmenstein_runtime>  (859) 
5.002682447433472

>  <fragmenstein_outcome>  (859) 
too moved

>  <fragmenstein_mode>  (859) 
expansion

>  <fragmenstein_error>  (859) 


$$$$
C8134-P80
     RDKit          3D

 21 23  0  0  0  0  0  0  0  0999 V2000
   -2.3591   -6.4596   30.3174 C   0  0  0  0  0  0  0  0  0  0  0  0
   -1.7457   -7.4123   29.4786 C   0  0  0  0  0  0  0  0  0  0  0  0
   -0.9935   -6.6973   28.5550 C   0  0  0  0  0  0  0  0  0  0  0  0
   -0.0941   -7.1683   27.5069 C   0  0  0  0  0  0  0  0  0  0  0  0
    0.1812   -6.5864   26.3445 N   0  0  0  0  0  0  0  0  0  0  0  0
    1.1804   -7.4064   25.7794 C   0  0  0  0  0  0  0  0  0  0  0  0
    2.0765   -7.1050   24.4149 C   0  0  0  0  0  0  0  0  0  0  0  0
    1.8787   -6.1657   23.5033 N   0  0  0  0  0  0  0  0  0  0  0  0
    2.9663   -6.1960   22.6561 C   0  0  0  0  0  0  0  0  0  0  0  0
    3.8262   -7.2023   23.0164 C   0  0  0  0  0  0  0  0  0  0  0  0
    3.2357   -7.7939   24.1057 N   0  0  0  0  0  0  0  0  0  0  0  0
    1.4644   -8.4733   26.5420 N   0  0  0  0  0  0  0  0  0  0  0  0
    0.6164   -8.3422   27.6431 O   0  0  0  0  0  0  0  0  0  0  0  0
   -1.2023   -5.3827   28.9033 N   0  0  0  0  0  0  0  0  0  0  0  0
   -2.0365   -5.2178   29.9638 N   0  0  0  0  0  0  0  0  0  0  0  0
   -3.0127   -6.6199   31.1661 H   0  0  0  0  0  0  0  0  0  0  0  0
   -1.8194   -8.4891   29.5508 H   0  0  0  0  0  0  0  0  0  0  0  0
    3.0630   -5.4859   21.8451 H   0  0  0  0  0  0  0  0  0  0  0  0
    4.7743   -7.5369   22.6209 H   0  0  0  0  0  0  0  0  0  0  0  0
    3.6142   -8.5464   24.6637 H   0  0  0  0  0  0  0  0  0  0  0  0
   -0.8382   -4.5492   28.4483 H   0  0  0  0  0  0  0  0  0  0  0  0
  1  2  1  0
  2  3  2  0
  3  4  1  0
  4  5  2  0
  5  6  1  0
  6  7  1  0
  7  8  2  0
  8  9  1  0
  9 10  2  0
 10 11  1  0
  6 12  2  0
 12 13  1  0
  3 14  1  0
 14 15  1  0
 15  1  2  0
 13  4  1  0
 11  7  1  0
  1 16  1  0
  2 17  1  0
  9 18  1  0
 10 19  1  0
 11 20  1  0
 14 21  1  0
M  END
>  <Energy>  (860) 
31.885915116506723

>  <compound_id>  (860) 
8134

>  <target_id>  (860) 
1

>  <reference_id>  (860) 
80

>  <inspiration_ids>  (860) 
[80, 7]

>  <energy_score>  (860) 
-16.87219032173215

>  <distance_score>  (860) 
13.74781644411949

>  <path>  (860) 
/opt/xchem-fragalysis-2/maxwin/BulkDock/SCRATCH/511020/C8134-P80/C8134-P80.minimised.mol

>  <scratch_subdir>  (860) 
/opt/xchem-fragalysis-2/maxwin/BulkDock/SCRATCH/511020/C8134-P80

>  <fragmenstein_runtime>  (860) 
2.95662260055542

>  <fragmenstein_outcome>  (860) 
too moved

>  <fragmenstein_mode>  (860) 
expansion

>  <fragmenstein_error>  (860) 


$$$$
C8134-P7
     RDKit          3D

 21 23  0  0  0  0  0  0  0  0999 V2000
   -2.9681   -1.7288   32.0396 C   0  0  0  0  0  0  0  0  0  0  0  0
   -1.9400   -1.9857   31.1056 C   0  0  0  0  0  0  0  0  0  0  0  0
   -1.3326   -0.7669   30.8668 C   0  0  0  0  0  0  0  0  0  0  0  0
   -0.2106   -0.3811   30.0325 C   0  0  0  0  0  0  0  0  0  0  0  0
    0.4988   -1.1752   29.2452 N   0  0  0  0  0  0  0  0  0  0  0  0
    1.4416   -0.3248   28.6653 C   0  0  0  0  0  0  0  0  0  0  0  0
    2.5549   -0.7312   27.5629 C   0  0  0  0  0  0  0  0  0  0  0  0
    2.7323   -1.9278   27.0389 N   0  0  0  0  0  0  0  0  0  0  0  0
    3.6026   -1.7566   25.9891 C   0  0  0  0  0  0  0  0  0  0  0  0
    4.1284   -0.4927   25.9983 C   0  0  0  0  0  0  0  0  0  0  0  0
    3.4445    0.1579   26.9888 N   0  0  0  0  0  0  0  0  0  0  0  0
    1.3320    0.9461   29.0877 N   0  0  0  0  0  0  0  0  0  0  0  0
    0.2555    0.9136   29.9761 O   0  0  0  0  0  0  0  0  0  0  0  0
   -2.0367    0.1198   31.6477 N   0  0  0  0  0  0  0  0  0  0  0  0
   -3.0373   -0.4370   32.3652 N   0  0  0  0  0  0  0  0  0  0  0  0
   -3.6656   -2.4272   32.4840 H   0  0  0  0  0  0  0  0  0  0  0  0
   -1.6636   -2.9343   30.6648 H   0  0  0  0  0  0  0  0  0  0  0  0
    3.7794   -2.5512   25.2757 H   0  0  0  0  0  0  0  0  0  0  0  0
    4.8180   -0.0026   25.3326 H   0  0  0  0  0  0  0  0  0  0  0  0
    3.4904    1.1412   27.2114 H   0  0  0  0  0  0  0  0  0  0  0  0
   -1.8781    1.1167   31.7457 H   0  0  0  0  0  0  0  0  0  0  0  0
  1  2  1  0
  2  3  2  0
  3  4  1  0
  4  5  2  0
  5  6  1  0
  6  7  1  0
  7  8  2  0
  8  9  1  0
  9 10  2  0
 10 11  1  0
  6 12  2  0
 12 13  1  0
  3 14  1  0
 14 15  1  0
 15  1  2  0
 13  4  1  0
 11  7  1  0
  1 16  1  0
  2 17  1  0
  9 18  1  0
 10 19  1  0
 11 20  1  0
 14 21  1  0
M  END
>  <Energy>  (861) 
27.818264910534381

>  <compound_id>  (861) 
8134

>  <target_id>  (861) 
1

>  <reference_id>  (861) 
7

>  <inspiration_ids>  (861) 
[80, 7]

>  <energy_score>  (861) 
-20.939840527705258

>  <distance_score>  (861) 
12.896355317491125

>  <path>  (861) 
/opt/xchem-fragalysis-2/maxwin/BulkDock/SCRATCH/511020/C8134-P7/C8134-P7.minimised.mol

>  <scratch_subdir>  (861) 
/opt/xchem-fragalysis-2/maxwin/BulkDock/SCRATCH/511020/C8134-P7

>  <fragmenstein_runtime>  (861) 
3.4755351543426514

>  <fragmenstein_outcome>  (861) 
too moved

>  <fragmenstein_mode>  (861) 
expansion

>  <fragmenstein_error>  (861) 


$$$$
C8135-P80
     RDKit          3D

 24 26  0  0  0  0  0  0  0  0999 V2000
    9.0177   -0.3753   24.5435 C   0  0  0  0  0  0  0  0  0  0  0  0
    7.5691   -0.6847   24.6575 C   0  0  0  0  0  0  0  0  0  0  0  0
    6.7656   -1.2750   23.7088 C   0  0  0  0  0  0  0  0  0  0  0  0
    5.5336   -1.3417   24.2970 N   0  0  0  0  0  0  0  0  0  0  0  0
    5.6064   -0.8690   25.5967 C   0  0  0  0  0  0  0  0  0  0  0  0
    4.2781   -1.0176   26.5546 C   0  0  0  0  0  0  0  0  0  0  0  0
    3.3652   -1.8928   26.1175 N   0  0  0  0  0  0  0  0  0  0  0  0
    2.3587   -1.8644   27.0481 O   0  0  0  0  0  0  0  0  0  0  0  0
    2.6712   -0.9289   27.9956 C   0  0  0  0  0  0  0  0  0  0  0  0
    1.6824   -0.6284   29.0286 C   0  0  0  0  0  0  0  0  0  0  0  0
    1.6483    0.2036   30.1320 C   0  0  0  0  0  0  0  0  0  0  0  0
    0.3709    0.0226   30.7194 C   0  0  0  0  0  0  0  0  0  0  0  0
   -0.3730   -0.8566   30.0471 N   0  0  0  0  0  0  0  0  0  0  0  0
    0.4336   -1.2269   29.0268 N   0  0  0  0  0  0  0  0  0  0  0  0
    3.8882   -0.4188   27.7742 N   0  0  0  0  0  0  0  0  0  0  0  0
    6.8202   -0.3655   25.7982 N   0  0  0  0  0  0  0  0  0  0  0  0
    9.6064   -1.2974   24.5450 H   0  0  0  0  0  0  0  0  0  0  0  0
    9.2237    0.1769   23.6217 H   0  0  0  0  0  0  0  0  0  0  0  0
    9.3461    0.2398   25.3870 H   0  0  0  0  0  0  0  0  0  0  0  0
    6.9300   -1.6232   22.7022 H   0  0  0  0  0  0  0  0  0  0  0  0
    4.6542   -1.6159   23.8746 H   0  0  0  0  0  0  0  0  0  0  0  0
    2.4450    0.8527   30.4686 H   0  0  0  0  0  0  0  0  0  0  0  0
   -0.0357    0.4968   31.6037 H   0  0  0  0  0  0  0  0  0  0  0  0
    0.0766   -1.8929   28.3477 H   0  0  0  0  0  0  0  0  0  0  0  0
  1  2  1  0
  2  3  2  0
  3  4  1  0
  4  5  1  0
  5  6  1  0
  6  7  2  0
  7  8  1  0
  8  9  1  0
  9 10  1  0
 10 11  2  0
 11 12  1  0
 12 13  2  0
 13 14  1  0
  9 15  2  0
  5 16  2  0
 16  2  1  0
 15  6  1  0
 14 10  1  0
  1 17  1  0
  1 18  1  0
  1 19  1  0
  3 20  1  0
  4 21  1  0
 11 22  1  0
 12 23  1  0
 14 24  1  0
M  END
>  <Energy>  (862) 
40.722731937791849

>  <compound_id>  (862) 
8135

>  <target_id>  (862) 
1

>  <reference_id>  (862) 
80

>  <inspiration_ids>  (862) 
[80, 7]

>  <energy_score>  (862) 
-8.986331234445643

>  <distance_score>  (862) 
12.996296905972127

>  <path>  (862) 
/opt/xchem-fragalysis-2/maxwin/BulkDock/SCRATCH/511020/C8135-P80/C8135-P80.minimised.mol

>  <scratch_subdir>  (862) 
/opt/xchem-fragalysis-2/maxwin/BulkDock/SCRATCH/511020/C8135-P80

>  <fragmenstein_runtime>  (862) 
3.8960506916046143

>  <fragmenstein_outcome>  (862) 
too moved

>  <fragmenstein_mode>  (862) 
expansion

>  <fragmenstein_error>  (862) 


$$$$
C8135-P7
     RDKit          3D

 24 26  0  0  0  0  0  0  0  0999 V2000
    6.2497    2.5222   20.2987 C   0  0  0  0  0  0  0  0  0  0  0  0
    4.8375    2.6902   20.7403 C   0  0  0  0  0  0  0  0  0  0  0  0
    3.7060    2.1163   20.2083 C   0  0  0  0  0  0  0  0  0  0  0  0
    2.6895    2.4680   21.0620 N   0  0  0  0  0  0  0  0  0  0  0  0
    3.2142    3.1743   22.1211 C   0  0  0  0  0  0  0  0  0  0  0  0
    2.3644    3.5120   23.5107 C   0  0  0  0  0  0  0  0  0  0  0  0
    2.9384    4.0664   24.5897 N   0  0  0  0  0  0  0  0  0  0  0  0
    1.9698    3.9562   25.5933 O   0  0  0  0  0  0  0  0  0  0  0  0
    0.8339    3.4103   25.0384 C   0  0  0  0  0  0  0  0  0  0  0  0
   -0.3590    3.0911   25.8264 C   0  0  0  0  0  0  0  0  0  0  0  0
   -1.7127    3.0794   25.5254 C   0  0  0  0  0  0  0  0  0  0  0  0
   -2.3781    2.6781   26.7085 C   0  0  0  0  0  0  0  0  0  0  0  0
   -1.5217    2.4372   27.7005 N   0  0  0  0  0  0  0  0  0  0  0  0
   -0.3138    2.7128   27.1542 N   0  0  0  0  0  0  0  0  0  0  0  0
    1.0086    3.1885   23.7383 N   0  0  0  0  0  0  0  0  0  0  0  0
    4.4939    3.4434   21.8590 N   0  0  0  0  0  0  0  0  0  0  0  0
    6.8875    3.2904   20.7460 H   0  0  0  0  0  0  0  0  0  0  0  0
    6.6222    1.5405   20.6061 H   0  0  0  0  0  0  0  0  0  0  0  0
    6.3271    2.6021   19.2101 H   0  0  0  0  0  0  0  0  0  0  0  0
    3.5415    1.4639   19.3636 H   0  0  0  0  0  0  0  0  0  0  0  0
    1.7358    2.1473   21.0159 H   0  0  0  0  0  0  0  0  0  0  0  0
   -2.1651    3.3484   24.5802 H   0  0  0  0  0  0  0  0  0  0  0  0
   -3.4411    2.5556   26.8771 H   0  0  0  0  0  0  0  0  0  0  0  0
    0.5107    2.6038   27.7371 H   0  0  0  0  0  0  0  0  0  0  0  0
  1  2  1  0
  2  3  2  0
  3  4  1  0
  4  5  1  0
  5  6  1  0
  6  7  2  0
  7  8  1  0
  8  9  1  0
  9 10  1  0
 10 11  2  0
 11 12  1  0
 12 13  2  0
 13 14  1  0
  9 15  2  0
  5 16  2  0
 16  2  1  0
 15  6  1  0
 14 10  1  0
  1 17  1  0
  1 18  1  0
  1 19  1  0
  3 20  1  0
  4 21  1  0
 11 22  1  0
 12 23  1  0
 14 24  1  0
M  END
>  <Energy>  (863) 
35.322323242051695

>  <compound_id>  (863) 
8135

>  <target_id>  (863) 
1

>  <reference_id>  (863) 
7

>  <inspiration_ids>  (863) 
[80, 7]

>  <energy_score>  (863) 
-14.38673993018594

>  <distance_score>  (863) 
13.458698675530162

>  <path>  (863) 
/opt/xchem-fragalysis-2/maxwin/BulkDock/SCRATCH/511020/C8135-P7/C8135-P7.minimised.mol

>  <scratch_subdir>  (863) 
/opt/xchem-fragalysis-2/maxwin/BulkDock/SCRATCH/511020/C8135-P7

>  <fragmenstein_runtime>  (863) 
3.591728925704956

>  <fragmenstein_outcome>  (863) 
too moved

>  <fragmenstein_mode>  (863) 
expansion

>  <fragmenstein_error>  (863) 


$$$$
C10615-P80
     RDKit          3D

 31 34  0  0  0  0  0  0  0  0999 V2000
    6.0224   -0.7824   20.2105 C   0  0  0  0  0  0  0  0  0  0  0  0
    5.3748    0.4238   20.3399 C   0  0  0  0  0  0  0  0  0  0  0  0
    4.7275    0.3300   21.5493 N   0  0  0  0  0  0  0  0  0  0  0  0
    5.0393   -0.9615   22.2280 C   0  0  0  0  0  0  0  0  0  0  0  0
    4.6576   -1.3097   24.1125 C   0  0  0  0  0  0  0  0  0  0  0  0
    4.2458   -2.5066   24.5404 N   0  0  0  0  0  0  0  0  0  0  0  0
    3.6388   -2.3159   25.7696 O   0  0  0  0  0  0  0  0  0  0  0  0
    3.6363   -0.9834   26.0338 C   0  0  0  0  0  0  0  0  0  0  0  0
    3.0243   -0.3506   27.4166 C   0  0  0  0  0  0  0  0  0  0  0  0
    1.4637   -0.6833   27.9015 C   0  0  0  0  0  0  0  0  0  0  0  0
    1.0412   -1.8840   28.5358 C   0  0  0  0  0  0  0  0  0  0  0  0
   -0.2506   -1.6508   28.9635 C   0  0  0  0  0  0  0  0  0  0  0  0
   -0.5396   -0.3777   28.5781 N   0  0  0  0  0  0  0  0  0  0  0  0
    0.4761    0.2334   27.9383 N   0  0  0  0  0  0  0  0  0  0  0  0
    3.3596    1.1770   27.5627 C   0  0  0  0  0  0  0  0  0  0  0  0
    4.6874    0.7772   28.2334 C   0  0  0  0  0  0  0  0  0  0  0  0
    4.0310   -0.5666   28.6033 C   0  0  0  0  0  0  0  0  0  0  0  0
    4.3100   -0.3158   25.1022 N   0  0  0  0  0  0  0  0  0  0  0  0
    5.7884   -1.6643   21.2972 N   0  0  0  0  0  0  0  0  0  0  0  0
    6.6612   -1.0368   19.3984 H   0  0  0  0  0  0  0  0  0  0  0  0
    5.3229    1.3144   19.7330 H   0  0  0  0  0  0  0  0  0  0  0  0
    4.2420    1.0285   22.0950 H   0  0  0  0  0  0  0  0  0  0  0  0
    1.6241   -2.7825   28.6858 H   0  0  0  0  0  0  0  0  0  0  0  0
   -0.9565   -2.2626   29.5041 H   0  0  0  0  0  0  0  0  0  0  0  0
   -1.3935    0.1504   28.7232 H   0  0  0  0  0  0  0  0  0  0  0  0
    2.7027    1.7384   28.2384 H   0  0  0  0  0  0  0  0  0  0  0  0
    3.4547    1.7519   26.6372 H   0  0  0  0  0  0  0  0  0  0  0  0
    5.5292    0.6857   27.5377 H   0  0  0  0  0  0  0  0  0  0  0  0
    4.9969    1.3998   29.0769 H   0  0  0  0  0  0  0  0  0  0  0  0
    4.6876   -1.4394   28.5341 H   0  0  0  0  0  0  0  0  0  0  0  0
    3.5769   -0.5595   29.6019 H   0  0  0  0  0  0  0  0  0  0  0  0
  1  2  2  0
  2  3  1  0
  3  4  1  0
  4  5  1  0
  5  6  2  0
  6  7  1  0
  7  8  1  0
  8  9  1  0
  9 10  1  0
 10 11  1  0
 11 12  2  0
 12 13  1  0
 13 14  1  0
  9 15  1  0
 15 16  1  0
 16 17  1  0
  8 18  2  0
  4 19  2  0
 19  1  1  0
 18  5  1  0
 17  9  1  0
 14 10  2  0
  1 20  1  0
  2 21  1  0
  3 22  1  0
 11 23  1  0
 12 24  1  0
 13 25  1  0
 15 26  1  0
 15 27  1  0
 16 28  1  0
 16 29  1  0
 17 30  1  0
 17 31  1  0
M  END
>  <Energy>  (864) 
113.98656834526358

>  <compound_id>  (864) 
10615

>  <target_id>  (864) 
1

>  <reference_id>  (864) 
80

>  <inspiration_ids>  (864) 
[80, 7]

>  <energy_score>  (864) 
25.279340035834707

>  <distance_score>  (864) 
12.698209039295351

>  <path>  (864) 
/opt/xchem-fragalysis-2/maxwin/BulkDock/SCRATCH/511020/C10615-P80/C10615-P80.minimised.mol

>  <scratch_subdir>  (864) 
/opt/xchem-fragalysis-2/maxwin/BulkDock/SCRATCH/511020/C10615-P80

>  <fragmenstein_runtime>  (864) 
5.310522794723511

>  <fragmenstein_outcome>  (864) 
too moved

>  <fragmenstein_mode>  (864) 
expansion

>  <fragmenstein_error>  (864) 


$$$$
C10615-P7
     RDKit          3D

 31 34  0  0  0  0  0  0  0  0999 V2000
    3.7146   -1.8432   26.1076 C   0  0  0  0  0  0  0  0  0  0  0  0
    3.8851   -0.4864   26.0581 C   0  0  0  0  0  0  0  0  0  0  0  0
    3.0529    0.0039   27.0226 N   0  0  0  0  0  0  0  0  0  0  0  0
    2.4024   -1.0567   27.6198 C   0  0  0  0  0  0  0  0  0  0  0  0
    1.2389   -0.9037   28.7324 C   0  0  0  0  0  0  0  0  0  0  0  0
    0.7951    0.2956   29.1525 N   0  0  0  0  0  0  0  0  0  0  0  0
   -0.1544   -0.0165   30.1408 O   0  0  0  0  0  0  0  0  0  0  0  0
   -0.2144   -1.3828   30.2306 C   0  0  0  0  0  0  0  0  0  0  0  0
   -0.9972   -2.1903   31.3995 C   0  0  0  0  0  0  0  0  0  0  0  0
   -2.4172   -1.6230   31.9540 C   0  0  0  0  0  0  0  0  0  0  0  0
   -2.5985   -0.3940   32.6374 C   0  0  0  0  0  0  0  0  0  0  0  0
   -3.8820   -0.4416   33.1398 C   0  0  0  0  0  0  0  0  0  0  0  0
   -4.3904   -1.6482   32.7564 N   0  0  0  0  0  0  0  0  0  0  0  0
   -3.5363   -2.3662   32.0047 N   0  0  0  0  0  0  0  0  0  0  0  0
   -0.0310   -2.5129   32.5939 C   0  0  0  0  0  0  0  0  0  0  0  0
    0.3049   -3.8538   31.9175 C   0  0  0  0  0  0  0  0  0  0  0  0
   -1.0185   -3.7388   31.1386 C   0  0  0  0  0  0  0  0  0  0  0  0
    0.5996   -1.9622   29.3603 N   0  0  0  0  0  0  0  0  0  0  0  0
    2.8650   -2.1933   27.1319 N   0  0  0  0  0  0  0  0  0  0  0  0
    4.1334   -2.5792   25.4407 H   0  0  0  0  0  0  0  0  0  0  0  0
    4.4506    0.1342   25.3850 H   0  0  0  0  0  0  0  0  0  0  0  0
    2.8747    0.9747   27.2313 H   0  0  0  0  0  0  0  0  0  0  0  0
   -1.8674    0.3869   32.7971 H   0  0  0  0  0  0  0  0  0  0  0  0
   -4.4511    0.2398   33.7553 H   0  0  0  0  0  0  0  0  0  0  0  0
   -5.3051   -2.0419   32.9559 H   0  0  0  0  0  0  0  0  0  0  0  0
   -0.5250   -2.6374   33.5658 H   0  0  0  0  0  0  0  0  0  0  0  0
    0.8188   -1.8367   32.7303 H   0  0  0  0  0  0  0  0  0  0  0  0
    1.2001   -3.8227   31.2867 H   0  0  0  0  0  0  0  0  0  0  0  0
    0.3827   -4.7130   32.5891 H   0  0  0  0  0  0  0  0  0  0  0  0
   -0.9737   -4.0612   30.0936 H   0  0  0  0  0  0  0  0  0  0  0  0
   -1.8320   -4.2932   31.6215 H   0  0  0  0  0  0  0  0  0  0  0  0
  1  2  2  0
  2  3  1  0
  3  4  1  0
  4  5  1  0
  5  6  2  0
  6  7  1  0
  7  8  1  0
  8  9  1  0
  9 10  1  0
 10 11  1  0
 11 12  2  0
 12 13  1  0
 13 14  1  0
  9 15  1  0
 15 16  1  0
 16 17  1  0
  8 18  2  0
  4 19  2  0
 19  1  1  0
 18  5  1  0
 17  9  1  0
 14 10  2  0
  1 20  1  0
  2 21  1  0
  3 22  1  0
 11 23  1  0
 12 24  1  0
 13 25  1  0
 15 26  1  0
 15 27  1  0
 16 28  1  0
 16 29  1  0
 17 30  1  0
 17 31  1  0
M  END
>  <Energy>  (865) 
64.280681443602333

>  <compound_id>  (865) 
10615

>  <target_id>  (865) 
1

>  <reference_id>  (865) 
7

>  <inspiration_ids>  (865) 
[80, 7]

>  <energy_score>  (865) 
-24.42654686582773

>  <distance_score>  (865) 
12.02705444077945

>  <path>  (865) 
/opt/xchem-fragalysis-2/maxwin/BulkDock/SCRATCH/511020/C10615-P7/C10615-P7.minimised.mol

>  <scratch_subdir>  (865) 
/opt/xchem-fragalysis-2/maxwin/BulkDock/SCRATCH/511020/C10615-P7

>  <fragmenstein_runtime>  (865) 
6.320000886917114

>  <fragmenstein_outcome>  (865) 
too moved

>  <fragmenstein_mode>  (865) 
expansion

>  <fragmenstein_error>  (865) 


$$$$
C8136-P80
     RDKit          3D

 24 26  0  0  0  0  0  0  0  0999 V2000
    4.6816   -1.3369   28.7874 C   0  0  0  0  0  0  0  0  0  0  0  0
    4.3724   -1.1366   27.3929 N   0  0  0  0  0  0  0  0  0  0  0  0
    5.2963   -1.0521   26.3614 C   0  0  0  0  0  0  0  0  0  0  0  0
    4.5332   -0.9794   25.2337 C   0  0  0  0  0  0  0  0  0  0  0  0
    3.2155   -0.7341   25.6067 N   0  0  0  0  0  0  0  0  0  0  0  0
    3.0723   -0.8819   26.9382 C   0  0  0  0  0  0  0  0  0  0  0  0
    1.4077   -0.7147   27.9936 C   0  0  0  0  0  0  0  0  0  0  0  0
    0.3726   -0.0503   27.4361 N   0  0  0  0  0  0  0  0  0  0  0  0
   -0.6861   -0.0271   28.3573 O   0  0  0  0  0  0  0  0  0  0  0  0
   -0.3677   -0.7013   29.5392 C   0  0  0  0  0  0  0  0  0  0  0  0
   -1.5377   -0.8359   30.7255 C   0  0  0  0  0  0  0  0  0  0  0  0
   -1.9624   -1.8481   31.6166 C   0  0  0  0  0  0  0  0  0  0  0  0
   -3.1067   -1.4041   32.3592 C   0  0  0  0  0  0  0  0  0  0  0  0
   -3.4202   -0.1596   32.0232 N   0  0  0  0  0  0  0  0  0  0  0  0
   -2.5220    0.1365   31.0197 N   0  0  0  0  0  0  0  0  0  0  0  0
    0.9493   -1.1173   29.3979 N   0  0  0  0  0  0  0  0  0  0  0  0
    4.1198   -2.2038   29.1444 H   0  0  0  0  0  0  0  0  0  0  0  0
    4.3973   -0.4376   29.3395 H   0  0  0  0  0  0  0  0  0  0  0  0
    5.7530   -1.5204   28.9002 H   0  0  0  0  0  0  0  0  0  0  0  0
    6.3551   -1.1327   26.5547 H   0  0  0  0  0  0  0  0  0  0  0  0
    4.8276   -1.0258   24.1994 H   0  0  0  0  0  0  0  0  0  0  0  0
   -1.4905   -2.8182   31.6988 H   0  0  0  0  0  0  0  0  0  0  0  0
   -3.6746   -1.9307   33.1150 H   0  0  0  0  0  0  0  0  0  0  0  0
   -2.6079    1.0399   30.5685 H   0  0  0  0  0  0  0  0  0  0  0  0
  1  2  1  0
  2  3  1  0
  3  4  2  0
  4  5  1  0
  5  6  2  0
  6  7  1  0
  7  8  2  0
  8  9  1  0
  9 10  1  0
 10 11  1  0
 11 12  2  0
 12 13  1  0
 13 14  2  0
 14 15  1  0
 10 16  2  0
  6  2  1  0
 16  7  1  0
 15 11  1  0
  1 17  1  0
  1 18  1  0
  1 19  1  0
  3 20  1  0
  4 21  1  0
 12 22  1  0
 13 23  1  0
 15 24  1  0
M  END
>  <Energy>  (866) 
116.77378044871101

>  <compound_id>  (866) 
8136

>  <target_id>  (866) 
1

>  <reference_id>  (866) 
80

>  <inspiration_ids>  (866) 
[80, 7]

>  <energy_score>  (866) 
37.28738236071405

>  <distance_score>  (866) 
12.37680676458875

>  <path>  (866) 
/opt/xchem-fragalysis-2/maxwin/BulkDock/SCRATCH/511020/C8136-P80/C8136-P80.minimised.mol

>  <scratch_subdir>  (866) 
/opt/xchem-fragalysis-2/maxwin/BulkDock/SCRATCH/511020/C8136-P80

>  <fragmenstein_runtime>  (866) 
2.279357433319092

>  <fragmenstein_outcome>  (866) 
too moved

>  <fragmenstein_mode>  (866) 
expansion

>  <fragmenstein_error>  (866) 


$$$$
C8136-P7
     RDKit          3D

 24 26  0  0  0  0  0  0  0  0999 V2000
    4.2403    5.0001   22.5146 C   0  0  0  0  0  0  0  0  0  0  0  0
    4.0639    3.6473   22.0424 N   0  0  0  0  0  0  0  0  0  0  0  0
    4.8501    3.0198   21.0644 C   0  0  0  0  0  0  0  0  0  0  0  0
    4.2093    1.8382   20.8288 C   0  0  0  0  0  0  0  0  0  0  0  0
    3.0787    1.7626   21.6527 N   0  0  0  0  0  0  0  0  0  0  0  0
    3.0325    2.7912   22.5240 C   0  0  0  0  0  0  0  0  0  0  0  0
    1.8053    3.1163   24.0675 C   0  0  0  0  0  0  0  0  0  0  0  0
    1.8360    4.2793   24.7629 N   0  0  0  0  0  0  0  0  0  0  0  0
    0.8021    4.2023   25.7778 O   0  0  0  0  0  0  0  0  0  0  0  0
    0.1398    2.9533   25.7690 C   0  0  0  0  0  0  0  0  0  0  0  0
   -1.1180    2.5570   26.8457 C   0  0  0  0  0  0  0  0  0  0  0  0
   -2.2687    3.2814   27.2529 C   0  0  0  0  0  0  0  0  0  0  0  0
   -3.0169    2.5028   28.1714 C   0  0  0  0  0  0  0  0  0  0  0  0
   -2.3809    1.3719   28.4743 N   0  0  0  0  0  0  0  0  0  0  0  0
   -1.2778    1.3994   27.6500 N   0  0  0  0  0  0  0  0  0  0  0  0
    0.7084    2.2813   24.7300 N   0  0  0  0  0  0  0  0  0  0  0  0
    4.4264    4.9789   23.5906 H   0  0  0  0  0  0  0  0  0  0  0  0
    3.3314    5.5638   22.2903 H   0  0  0  0  0  0  0  0  0  0  0  0
    5.0922    5.4544   22.0023 H   0  0  0  0  0  0  0  0  0  0  0  0
    5.7126    3.5011   20.6306 H   0  0  0  0  0  0  0  0  0  0  0  0
    4.4304    1.0553   20.1200 H   0  0  0  0  0  0  0  0  0  0  0  0
   -2.5382    4.2560   26.8680 H   0  0  0  0  0  0  0  0  0  0  0  0
   -3.9741    2.7533   28.6049 H   0  0  0  0  0  0  0  0  0  0  0  0
   -0.6390    0.6113   27.6820 H   0  0  0  0  0  0  0  0  0  0  0  0
  1  2  1  0
  2  3  1  0
  3  4  2  0
  4  5  1  0
  5  6  2  0
  6  7  1  0
  7  8  2  0
  8  9  1  0
  9 10  1  0
 10 11  1  0
 11 12  2  0
 12 13  1  0
 13 14  2  0
 14 15  1  0
 10 16  2  0
  6  2  1  0
 16  7  1  0
 15 11  1  0
  1 17  1  0
  1 18  1  0
  1 19  1  0
  3 20  1  0
  4 21  1  0
 12 22  1  0
 13 23  1  0
 15 24  1  0
M  END
>  <Energy>  (867) 
122.97550972292848

>  <compound_id>  (867) 
8136

>  <target_id>  (867) 
1

>  <reference_id>  (867) 
7

>  <inspiration_ids>  (867) 
[80, 7]

>  <energy_score>  (867) 
43.48911163493244

>  <distance_score>  (867) 
12.737132592153763

>  <path>  (867) 
/opt/xchem-fragalysis-2/maxwin/BulkDock/SCRATCH/511020/C8136-P7/C8136-P7.minimised.mol

>  <scratch_subdir>  (867) 
/opt/xchem-fragalysis-2/maxwin/BulkDock/SCRATCH/511020/C8136-P7

>  <fragmenstein_runtime>  (867) 
2.2733657360076904

>  <fragmenstein_outcome>  (867) 
too moved

>  <fragmenstein_mode>  (867) 
expansion

>  <fragmenstein_error>  (867) 


$$$$
C10616-P80
     RDKit          3D

 48 49  0  0  0  0  0  0  0  0999 V2000
    4.6393   -1.6528   27.1521 C   0  0  0  0  0  0  0  0  0  0  0  0
    3.8797   -1.4125   25.8468 C   0  0  0  0  0  0  0  0  0  0  0  0
    4.2667   -0.0569   25.1894 C   0  0  0  0  0  0  0  0  0  0  0  0
    4.9600   -0.3793   23.5786 C   0  0  0  0  0  0  0  0  0  0  0  0
    5.1334    0.6265   21.8776 N   0  0  0  0  0  0  0  0  0  0  0  0
    6.5959    1.4587   21.1000 C   0  0  0  0  0  0  0  0  0  0  0  0
    7.6923    1.5793   21.5918 O   0  0  0  0  0  0  0  0  0  0  0  0
    6.5824    2.1991   19.6484 C   0  0  0  0  0  0  0  0  0  0  0  0
    6.4581    3.6143   19.6066 N   0  0  0  0  0  0  0  0  0  0  0  0
    6.7232    4.0042   18.3826 C   0  0  0  0  0  0  0  0  0  0  0  0
    7.0921    2.9588   17.5991 N   0  0  0  0  0  0  0  0  0  0  0  0
    7.0348    1.8192   18.3614 C   0  0  0  0  0  0  0  0  0  0  0  0
    7.3106    0.5036   17.7504 C   0  0  0  0  0  0  0  0  0  0  0  0
    3.2649    0.9827   25.5866 N   0  0  0  0  0  0  0  0  0  0  0  0
    2.6540    1.2840   26.8963 C   0  0  0  0  0  0  0  0  0  0  0  0
    2.8704    0.8191   27.9878 O   0  0  0  0  0  0  0  0  0  0  0  0
    1.4993    2.4044   26.9288 C   0  0  0  0  0  0  0  0  0  0  0  0
    2.1118    3.5707   27.7575 C   0  0  0  0  0  0  0  0  0  0  0  0
    1.1085    3.0392   25.5854 C   0  0  0  0  0  0  0  0  0  0  0  0
    0.2215    1.8462   27.6988 C   0  0  0  0  0  0  0  0  0  0  0  0
   -0.0051    1.7530   29.1136 C   0  0  0  0  0  0  0  0  0  0  0  0
   -1.2582    1.2080   29.2731 C   0  0  0  0  0  0  0  0  0  0  0  0
   -1.7069    0.9753   28.0123 N   0  0  0  0  0  0  0  0  0  0  0  0
   -0.8738    1.4096   27.0424 N   0  0  0  0  0  0  0  0  0  0  0  0
    4.3330   -2.6018   27.5981 H   0  0  0  0  0  0  0  0  0  0  0  0
    5.7194   -1.6751   26.9790 H   0  0  0  0  0  0  0  0  0  0  0  0
    4.4568   -0.8761   27.8943 H   0  0  0  0  0  0  0  0  0  0  0  0
    4.0793   -2.2478   25.1697 H   0  0  0  0  0  0  0  0  0  0  0  0
    2.8118   -1.4397   26.0744 H   0  0  0  0  0  0  0  0  0  0  0  0
    5.1221    0.2706   25.7915 H   0  0  0  0  0  0  0  0  0  0  0  0
    5.7042   -1.1043   23.9345 H   0  0  0  0  0  0  0  0  0  0  0  0
    4.5526   -1.3369   23.1669 H   0  0  0  0  0  0  0  0  0  0  0  0
    4.3283    0.7406   21.2919 H   0  0  0  0  0  0  0  0  0  0  0  0
    6.6882    5.0237   18.0209 H   0  0  0  0  0  0  0  0  0  0  0  0
    7.3617    3.0220   16.6263 H   0  0  0  0  0  0  0  0  0  0  0  0
    6.5143    0.1976   17.0685 H   0  0  0  0  0  0  0  0  0  0  0  0
    8.2566    0.4918   17.2023 H   0  0  0  0  0  0  0  0  0  0  0  0
    7.3239   -0.2056   18.5750 H   0  0  0  0  0  0  0  0  0  0  0  0
    2.7836    1.5033   24.8695 H   0  0  0  0  0  0  0  0  0  0  0  0
    1.3841    4.3760   27.9124 H   0  0  0  0  0  0  0  0  0  0  0  0
    2.9859    3.9940   27.2482 H   0  0  0  0  0  0  0  0  0  0  0  0
    2.4512    3.2434   28.7468 H   0  0  0  0  0  0  0  0  0  0  0  0
    0.3941    3.8589   25.7325 H   0  0  0  0  0  0  0  0  0  0  0  0
    1.9785    3.4562   25.0657 H   0  0  0  0  0  0  0  0  0  0  0  0
    0.6283    2.3353   24.9101 H   0  0  0  0  0  0  0  0  0  0  0  0
    0.6829    2.0278   29.9014 H   0  0  0  0  0  0  0  0  0  0  0  0
   -1.8307    0.9383   30.1482 H   0  0  0  0  0  0  0  0  0  0  0  0
   -2.5676    0.5239   27.7285 H   0  0  0  0  0  0  0  0  0  0  0  0
  1  2  1  0
  2  3  1  0
  3  4  1  0
  4  5  1  0
  5  6  1  0
  6  7  2  0
  6  8  1  0
  8  9  1  0
  9 10  2  0
 10 11  1  0
 11 12  1  0
 12 13  1  0
  3 14  1  0
 14 15  1  0
 15 16  2  0
 15 17  1  0
 17 18  1  0
 17 19  1  0
 17 20  1  0
 20 21  1  0
 21 22  2  0
 22 23  1  0
 23 24  1  0
 12  8  2  0
 24 20  2  0
  1 25  1  0
  1 26  1  0
  1 27  1  0
  2 28  1  0
  2 29  1  0
  3 30  1  0
  4 31  1  0
  4 32  1  0
  5 33  1  0
 10 34  1  0
 11 35  1  0
 13 36  1  0
 13 37  1  0
 13 38  1  0
 14 39  1  0
 18 40  1  0
 18 41  1  0
 18 42  1  0
 19 43  1  0
 19 44  1  0
 19 45  1  0
 21 46  1  0
 22 47  1  0
 23 48  1  0
M  END
>  <Energy>  (868) 
307.99758702654913

>  <compound_id>  (868) 
10616

>  <target_id>  (868) 
1

>  <reference_id>  (868) 
80

>  <inspiration_ids>  (868) 
[80, 7]

>  <energy_score>  (868) 
208.09685051476674

>  <distance_score>  (868) 
11.843931778599247

>  <path>  (868) 
/opt/xchem-fragalysis-2/maxwin/BulkDock/SCRATCH/511020/C10616-P80/C10616-P80.minimised.mol

>  <scratch_subdir>  (868) 
/opt/xchem-fragalysis-2/maxwin/BulkDock/SCRATCH/511020/C10616-P80

>  <fragmenstein_runtime>  (868) 
22.803115844726562

>  <fragmenstein_outcome>  (868) 
too moved

>  <fragmenstein_mode>  (868) 
expansion

>  <fragmenstein_error>  (868) 


$$$$
C10616-P7
     RDKit          3D

 48 49  0  0  0  0  0  0  0  0999 V2000
    5.2256    0.5555   28.8425 C   0  0  0  0  0  0  0  0  0  0  0  0
    4.9747    0.7202   27.3484 C   0  0  0  0  0  0  0  0  0  0  0  0
    3.8549   -0.1866   26.8303 C   0  0  0  0  0  0  0  0  0  0  0  0
    3.6832   -0.1067   25.2698 C   0  0  0  0  0  0  0  0  0  0  0  0
    4.7525    0.0321   24.2060 N   0  0  0  0  0  0  0  0  0  0  0  0
    4.7147    0.8428   22.5546 C   0  0  0  0  0  0  0  0  0  0  0  0
    3.7005    1.3206   22.0816 O   0  0  0  0  0  0  0  0  0  0  0  0
    6.2150    1.2282   21.4078 C   0  0  0  0  0  0  0  0  0  0  0  0
    6.7525    2.7840   21.2862 N   0  0  0  0  0  0  0  0  0  0  0  0
    6.8106    3.1486   20.0174 C   0  0  0  0  0  0  0  0  0  0  0  0
    6.8880    2.0252   19.2934 N   0  0  0  0  0  0  0  0  0  0  0  0
    6.7507    0.9143   20.1233 C   0  0  0  0  0  0  0  0  0  0  0  0
    7.1778   -0.2911   19.4967 C   0  0  0  0  0  0  0  0  0  0  0  0
    2.5479    0.2060   27.4947 N   0  0  0  0  0  0  0  0  0  0  0  0
    1.7313   -0.4891   28.5147 C   0  0  0  0  0  0  0  0  0  0  0  0
    1.8615   -1.5751   29.0118 O   0  0  0  0  0  0  0  0  0  0  0  0
    0.4868    0.4501   28.9967 C   0  0  0  0  0  0  0  0  0  0  0  0
   -0.3330    0.8964   27.7638 C   0  0  0  0  0  0  0  0  0  0  0  0
    1.1078    1.6925   29.6852 C   0  0  0  0  0  0  0  0  0  0  0  0
   -0.5491   -0.2070   29.9961 C   0  0  0  0  0  0  0  0  0  0  0  0
   -0.8875   -1.5694   30.2335 C   0  0  0  0  0  0  0  0  0  0  0  0
   -1.8997   -1.5621   31.1691 C   0  0  0  0  0  0  0  0  0  0  0  0
   -2.1469   -0.2524   31.4295 N   0  0  0  0  0  0  0  0  0  0  0  0
   -1.3770    0.5869   30.7166 N   0  0  0  0  0  0  0  0  0  0  0  0
    5.4523   -0.4865   29.0897 H   0  0  0  0  0  0  0  0  0  0  0  0
    6.0785    1.1695   29.1493 H   0  0  0  0  0  0  0  0  0  0  0  0
    4.3603    0.8707   29.4330 H   0  0  0  0  0  0  0  0  0  0  0  0
    5.9069    0.4873   26.8274 H   0  0  0  0  0  0  0  0  0  0  0  0
    4.7366    1.7707   27.1446 H   0  0  0  0  0  0  0  0  0  0  0  0
    4.0633   -1.2249   27.1144 H   0  0  0  0  0  0  0  0  0  0  0  0
    3.0498    0.7693   25.0894 H   0  0  0  0  0  0  0  0  0  0  0  0
    3.1445   -1.0317   25.0402 H   0  0  0  0  0  0  0  0  0  0  0  0
    5.6333   -0.3490   24.3530 H   0  0  0  0  0  0  0  0  0  0  0  0
    6.8670    4.1567   19.6243 H   0  0  0  0  0  0  0  0  0  0  0  0
    7.0361    1.9857   18.2954 H   0  0  0  0  0  0  0  0  0  0  0  0
    6.6274   -0.4017   18.5611 H   0  0  0  0  0  0  0  0  0  0  0  0
    8.1895   -0.4113   19.2149 H   0  0  0  0  0  0  0  0  0  0  0  0
    7.0808   -1.0133   20.2867 H   0  0  0  0  0  0  0  0  0  0  0  0
    2.1947    1.1430   27.3698 H   0  0  0  0  0  0  0  0  0  0  0  0
    0.2501    1.4828   27.0486 H   0  0  0  0  0  0  0  0  0  0  0  0
   -0.7303    0.0241   27.2346 H   0  0  0  0  0  0  0  0  0  0  0  0
   -1.1887    1.5179   28.0541 H   0  0  0  0  0  0  0  0  0  0  0  0
    1.6620    1.3953   30.5836 H   0  0  0  0  0  0  0  0  0  0  0  0
    1.8066    2.2323   29.0393 H   0  0  0  0  0  0  0  0  0  0  0  0
    0.3431    2.4162   29.9896 H   0  0  0  0  0  0  0  0  0  0  0  0
   -0.4329   -2.4412   29.7813 H   0  0  0  0  0  0  0  0  0  0  0  0
   -2.4420   -2.3543   31.6615 H   0  0  0  0  0  0  0  0  0  0  0  0
   -2.8223    0.1458   32.0729 H   0  0  0  0  0  0  0  0  0  0  0  0
  1  2  1  0
  2  3  1  0
  3  4  1  0
  4  5  1  0
  5  6  1  0
  6  7  2  0
  6  8  1  0
  8  9  1  0
  9 10  2  0
 10 11  1  0
 11 12  1  0
 12 13  1  0
  3 14  1  0
 14 15  1  0
 15 16  2  0
 15 17  1  0
 17 18  1  0
 17 19  1  0
 17 20  1  0
 20 21  1  0
 21 22  2  0
 22 23  1  0
 23 24  1  0
 12  8  2  0
 24 20  2  0
  1 25  1  0
  1 26  1  0
  1 27  1  0
  2 28  1  0
  2 29  1  0
  3 30  1  0
  4 31  1  0
  4 32  1  0
  5 33  1  0
 10 34  1  0
 11 35  1  0
 13 36  1  0
 13 37  1  0
 13 38  1  0
 14 39  1  0
 18 40  1  0
 18 41  1  0
 18 42  1  0
 19 43  1  0
 19 44  1  0
 19 45  1  0
 21 46  1  0
 22 47  1  0
 23 48  1  0
M  END
>  <Energy>  (869) 
277.00409677081603

>  <compound_id>  (869) 
10616

>  <target_id>  (869) 
1

>  <reference_id>  (869) 
7

>  <inspiration_ids>  (869) 
[80, 7]

>  <energy_score>  (869) 
177.10336025903757

>  <distance_score>  (869) 
10.781141933690146

>  <path>  (869) 
/opt/xchem-fragalysis-2/maxwin/BulkDock/SCRATCH/511020/C10616-P7/C10616-P7.minimised.mol

>  <scratch_subdir>  (869) 
/opt/xchem-fragalysis-2/maxwin/BulkDock/SCRATCH/511020/C10616-P7

>  <fragmenstein_runtime>  (869) 
30.50879669189453

>  <fragmenstein_outcome>  (869) 
too moved

>  <fragmenstein_mode>  (869) 
expansion

>  <fragmenstein_error>  (869) 


$$$$
C10617-P80
     RDKit          3D

 45 46  0  0  0  0  0  0  0  0999 V2000
    5.6121   -0.1533   20.9025 C   0  0  0  0  0  0  0  0  0  0  0  0
    5.4588   -1.5294   20.2920 C   0  0  0  0  0  0  0  0  0  0  0  0
    5.9835   -2.7341   21.1087 C   0  0  0  0  0  0  0  0  0  0  0  0
    7.2839   -2.4625   21.8447 N   0  0  0  0  0  0  0  0  0  0  0  0
    6.3509   -2.9437   23.1710 C   0  0  0  0  0  0  0  0  0  0  0  0
    4.9540   -2.2199   23.6518 C   0  0  0  0  0  0  0  0  0  0  0  0
    4.2151   -2.2841   24.9417 N   0  0  0  0  0  0  0  0  0  0  0  0
    4.0762   -1.3066   26.0103 C   0  0  0  0  0  0  0  0  0  0  0  0
    4.5901   -0.2313   26.1584 O   0  0  0  0  0  0  0  0  0  0  0  0
    3.0155   -1.6623   27.0791 C   0  0  0  0  0  0  0  0  0  0  0  0
    2.3433   -0.6961   27.9248 C   0  0  0  0  0  0  0  0  0  0  0  0
    1.3725   -1.3732   28.6256 C   0  0  0  0  0  0  0  0  0  0  0  0
    1.4880   -2.6635   28.2171 N   0  0  0  0  0  0  0  0  0  0  0  0
    2.4992   -2.8841   27.3458 N   0  0  0  0  0  0  0  0  0  0  0  0
    8.4484   -3.1692   21.1399 C   0  0  0  0  0  0  0  0  0  0  0  0
    8.9072   -4.2701   21.3120 O   0  0  0  0  0  0  0  0  0  0  0  0
    9.3585   -2.1822   19.9645 C   0  0  0  0  0  0  0  0  0  0  0  0
    8.5985   -0.7556   18.9453 C   0  0  0  0  0  0  0  0  0  0  0  0
    9.7765   -0.0573   17.4602 N   0  0  0  0  0  0  0  0  0  0  0  0
    9.1836    0.1636   16.1294 C   0  0  0  0  0  0  0  0  0  0  0  0
   10.2427    0.2639   15.0455 C   0  0  0  0  0  0  0  0  0  0  0  0
   11.3015   -1.3091   17.4849 C   0  0  0  0  0  0  0  0  0  0  0  0
   11.3623   -2.4817   18.9512 N   0  0  0  0  0  0  0  0  0  0  0  0
    5.0958    0.5923   20.2917 H   0  0  0  0  0  0  0  0  0  0  0  0
    6.6614    0.1393   20.9907 H   0  0  0  0  0  0  0  0  0  0  0  0
    5.1650   -0.0889   21.8795 H   0  0  0  0  0  0  0  0  0  0  0  0
    5.9169   -1.4787   19.3141 H   0  0  0  0  0  0  0  0  0  0  0  0
    4.4178   -1.7135   20.0294 H   0  0  0  0  0  0  0  0  0  0  0  0
    6.1853   -3.5721   20.4324 H   0  0  0  0  0  0  0  0  0  0  0  0
    5.1233   -3.2257   21.5698 H   0  0  0  0  0  0  0  0  0  0  0  0
    6.2507   -4.0391   23.1269 H   0  0  0  0  0  0  0  0  0  0  0  0
    7.0730   -2.7647   23.9777 H   0  0  0  0  0  0  0  0  0  0  0  0
    5.0981   -1.1676   23.5176 H   0  0  0  0  0  0  0  0  0  0  0  0
    4.1644   -2.5238   22.9640 H   0  0  0  0  0  0  0  0  0  0  0  0
    3.5651   -3.0461   25.1044 H   0  0  0  0  0  0  0  0  0  0  0  0
    2.5465    0.3658   27.9457 H   0  0  0  0  0  0  0  0  0  0  0  0
    0.6237   -1.0548   29.3350 H   0  0  0  0  0  0  0  0  0  0  0  0
    0.9172   -3.4550   28.4908 H   0  0  0  0  0  0  0  0  0  0  0  0
    7.5998   -0.3664   18.8269 H   0  0  0  0  0  0  0  0  0  0  0  0
    8.6383    1.1053   16.2232 H   0  0  0  0  0  0  0  0  0  0  0  0
    8.4965   -0.6652   15.9469 H   0  0  0  0  0  0  0  0  0  0  0  0
    9.8032    0.5214   14.0815 H   0  0  0  0  0  0  0  0  0  0  0  0
   10.9919    1.0233   15.2926 H   0  0  0  0  0  0  0  0  0  0  0  0
   10.7598   -0.6893   14.9020 H   0  0  0  0  0  0  0  0  0  0  0  0
   12.0517   -1.1354   16.7238 H   0  0  0  0  0  0  0  0  0  0  0  0
  1  2  1  0
  2  3  1  0
  3  4  1  0
  4  5  1  0
  5  6  1  0
  6  7  1  0
  7  8  1  0
  8  9  2  0
  8 10  1  0
 10 11  1  0
 11 12  2  0
 12 13  1  0
 13 14  1  0
  4 15  1  0
 15 16  2  0
 15 17  1  0
 17 18  2  0
 18 19  1  0
 19 20  1  0
 20 21  1  0
 19 22  1  0
 22 23  2  0
 14 10  2  0
 23 17  1  0
  1 24  1  0
  1 25  1  0
  1 26  1  0
  2 27  1  0
  2 28  1  0
  3 29  1  0
  3 30  1  0
  5 31  1  0
  5 32  1  0
  6 33  1  0
  6 34  1  0
  7 35  1  0
 11 36  1  0
 12 37  1  0
 13 38  1  0
 18 39  1  0
 20 40  1  0
 20 41  1  0
 21 42  1  0
 21 43  1  0
 21 44  1  0
 22 45  1  0
M  END
>  <Energy>  (870) 
945.88917587626122

>  <compound_id>  (870) 
10617

>  <target_id>  (870) 
1

>  <reference_id>  (870) 
80

>  <inspiration_ids>  (870) 
[80, 7]

>  <energy_score>  (870) 
852.056036100033

>  <distance_score>  (870) 
12.663862898519302

>  <path>  (870) 
/opt/xchem-fragalysis-2/maxwin/BulkDock/SCRATCH/511020/C10617-P80/C10617-P80.minimised.mol

>  <scratch_subdir>  (870) 
/opt/xchem-fragalysis-2/maxwin/BulkDock/SCRATCH/511020/C10617-P80

>  <fragmenstein_runtime>  (870) 
16.767016649246216

>  <fragmenstein_outcome>  (870) 
too moved

>  <fragmenstein_mode>  (870) 
expansion

>  <fragmenstein_error>  (870) 


$$$$
C10617-P7
     RDKit          3D

 45 46  0  0  0  0  0  0  0  0999 V2000
    3.6979    0.9419   26.1824 C   0  0  0  0  0  0  0  0  0  0  0  0
    4.6393   -0.1301   26.7006 C   0  0  0  0  0  0  0  0  0  0  0  0
    4.6365   -1.5661   26.0773 C   0  0  0  0  0  0  0  0  0  0  0  0
    3.4450   -2.1322   25.3383 N   0  0  0  0  0  0  0  0  0  0  0  0
    2.8443   -2.2234   26.8589 C   0  0  0  0  0  0  0  0  0  0  0  0
    1.9252   -1.1727   27.5494 C   0  0  0  0  0  0  0  0  0  0  0  0
    0.8497   -1.5419   28.4763 N   0  0  0  0  0  0  0  0  0  0  0  0
    0.8392   -2.4280   29.5978 C   0  0  0  0  0  0  0  0  0  0  0  0
    1.6847   -3.1601   30.0227 O   0  0  0  0  0  0  0  0  0  0  0  0
   -0.4605   -2.2754   30.3693 C   0  0  0  0  0  0  0  0  0  0  0  0
   -0.8920   -3.0105   31.5193 C   0  0  0  0  0  0  0  0  0  0  0  0
   -2.0457   -2.4028   31.9584 C   0  0  0  0  0  0  0  0  0  0  0  0
   -2.2621   -1.3782   31.0962 N   0  0  0  0  0  0  0  0  0  0  0  0
   -1.3549   -1.2910   30.1056 N   0  0  0  0  0  0  0  0  0  0  0  0
    3.8974   -3.2674   24.3602 C   0  0  0  0  0  0  0  0  0  0  0  0
    3.9817   -4.4480   24.5616 O   0  0  0  0  0  0  0  0  0  0  0  0
    4.4003   -2.9528   22.9635 C   0  0  0  0  0  0  0  0  0  0  0  0
    4.8146   -1.8751   22.2435 C   0  0  0  0  0  0  0  0  0  0  0  0
    5.0714   -2.2131   20.9467 N   0  0  0  0  0  0  0  0  0  0  0  0
    5.1879   -1.2658   19.8540 C   0  0  0  0  0  0  0  0  0  0  0  0
    4.0819   -0.2176   19.7387 C   0  0  0  0  0  0  0  0  0  0  0  0
    5.0298   -3.5637   20.9128 C   0  0  0  0  0  0  0  0  0  0  0  0
    4.6576   -4.0426   22.0774 N   0  0  0  0  0  0  0  0  0  0  0  0
    2.7141    0.9416   26.6392 H   0  0  0  0  0  0  0  0  0  0  0  0
    3.5577    0.8813   25.1071 H   0  0  0  0  0  0  0  0  0  0  0  0
    4.0912    1.9289   26.4500 H   0  0  0  0  0  0  0  0  0  0  0  0
    5.6625    0.2519   26.6070 H   0  0  0  0  0  0  0  0  0  0  0  0
    4.5220   -0.2112   27.7879 H   0  0  0  0  0  0  0  0  0  0  0  0
    5.0879   -2.2011   26.8389 H   0  0  0  0  0  0  0  0  0  0  0  0
    5.4042   -1.5129   25.2957 H   0  0  0  0  0  0  0  0  0  0  0  0
    3.5074   -2.6980   27.5995 H   0  0  0  0  0  0  0  0  0  0  0  0
    2.1660   -3.0712   26.7334 H   0  0  0  0  0  0  0  0  0  0  0  0
    2.5370   -0.5180   28.1703 H   0  0  0  0  0  0  0  0  0  0  0  0
    1.4117   -0.5724   26.8192 H   0  0  0  0  0  0  0  0  0  0  0  0
   -0.0208   -1.0116   28.4653 H   0  0  0  0  0  0  0  0  0  0  0  0
   -0.3711   -3.8381   31.9829 H   0  0  0  0  0  0  0  0  0  0  0  0
   -2.6800   -2.5776   32.8150 H   0  0  0  0  0  0  0  0  0  0  0  0
   -3.0008   -0.6854   31.1245 H   0  0  0  0  0  0  0  0  0  0  0  0
    4.8542   -0.8545   22.5287 H   0  0  0  0  0  0  0  0  0  0  0  0
    6.1668   -0.7887   19.9584 H   0  0  0  0  0  0  0  0  0  0  0  0
    5.1617   -1.8303   18.9283 H   0  0  0  0  0  0  0  0  0  0  0  0
    3.1363   -0.6866   19.4583 H   0  0  0  0  0  0  0  0  0  0  0  0
    3.9696    0.3652   20.6547 H   0  0  0  0  0  0  0  0  0  0  0  0
    4.2462    0.5020   18.9435 H   0  0  0  0  0  0  0  0  0  0  0  0
    5.2271   -4.1772   20.0517 H   0  0  0  0  0  0  0  0  0  0  0  0
  1  2  1  0
  2  3  1  0
  3  4  1  0
  4  5  1  0
  5  6  1  0
  6  7  1  0
  7  8  1  0
  8  9  2  0
  8 10  1  0
 10 11  1  0
 11 12  2  0
 12 13  1  0
 13 14  1  0
  4 15  1  0
 15 16  2  0
 15 17  1  0
 17 18  2  0
 18 19  1  0
 19 20  1  0
 20 21  1  0
 19 22  1  0
 22 23  2  0
 14 10  2  0
 23 17  1  0
  1 24  1  0
  1 25  1  0
  1 26  1  0
  2 27  1  0
  2 28  1  0
  3 29  1  0
  3 30  1  0
  5 31  1  0
  5 32  1  0
  6 33  1  0
  6 34  1  0
  7 35  1  0
 11 36  1  0
 12 37  1  0
 13 38  1  0
 18 39  1  0
 20 40  1  0
 20 41  1  0
 21 42  1  0
 21 43  1  0
 21 44  1  0
 22 45  1  0
M  END
>  <Energy>  (871) 
197.2780034664801

>  <compound_id>  (871) 
10617

>  <target_id>  (871) 
1

>  <reference_id>  (871) 
7

>  <inspiration_ids>  (871) 
[80, 7]

>  <energy_score>  (871) 
103.44486369025503

>  <distance_score>  (871) 
11.473574814073965

>  <path>  (871) 
/opt/xchem-fragalysis-2/maxwin/BulkDock/SCRATCH/511020/C10617-P7/C10617-P7.minimised.mol

>  <scratch_subdir>  (871) 
/opt/xchem-fragalysis-2/maxwin/BulkDock/SCRATCH/511020/C10617-P7

>  <fragmenstein_runtime>  (871) 
13.422108888626099

>  <fragmenstein_outcome>  (871) 
too moved

>  <fragmenstein_mode>  (871) 
expansion

>  <fragmenstein_error>  (871) 


$$$$
C10618-P80
     RDKit          3D

 42 43  0  0  0  0  0  0  0  0999 V2000
    9.4839   -3.9203   22.9211 C   0  0  0  0  0  0  0  0  0  0  0  0
    8.4431   -2.8120   22.7444 C   0  0  0  0  0  0  0  0  0  0  0  0
    7.8031   -2.8653   21.2963 C   0  0  0  0  0  0  0  0  0  0  0  0
    6.7304   -1.8899   20.6676 N   0  0  0  0  0  0  0  0  0  0  0  0
    6.1399   -2.0408   22.1051 C   0  0  0  0  0  0  0  0  0  0  0  0
    5.3082   -2.6590   23.3953 C   0  0  0  0  0  0  0  0  0  0  0  0
    4.6522   -1.6492   24.3762 N   0  0  0  0  0  0  0  0  0  0  0  0
    3.9559   -1.8605   25.6482 C   0  0  0  0  0  0  0  0  0  0  0  0
    3.7919   -2.8548   26.2840 O   0  0  0  0  0  0  0  0  0  0  0  0
    3.2872   -0.6824   26.3460 C   0  0  0  0  0  0  0  0  0  0  0  0
    2.2726   -0.8793   27.3835 C   0  0  0  0  0  0  0  0  0  0  0  0
    1.9014    0.3620   27.8279 C   0  0  0  0  0  0  0  0  0  0  0  0
    2.6753    1.2227   27.1118 N   0  0  0  0  0  0  0  0  0  0  0  0
    3.5271    0.6367   26.2300 N   0  0  0  0  0  0  0  0  0  0  0  0
    7.4737   -0.5740   19.8715 C   0  0  0  0  0  0  0  0  0  0  0  0
    7.6767    0.3975   20.5141 O   0  0  0  0  0  0  0  0  0  0  0  0
    7.9343   -0.2472   18.0411 C   0  0  0  0  0  0  0  0  0  0  0  0
    7.4265   -0.5465   16.6497 C   0  0  0  0  0  0  0  0  0  0  0  0
    8.3813   -0.3814   15.6825 N   0  0  0  0  0  0  0  0  0  0  0  0
    9.3420    0.3680   16.2512 C   0  0  0  0  0  0  0  0  0  0  0  0
   10.4793    0.9389   15.4955 C   0  0  0  0  0  0  0  0  0  0  0  0
    9.1213    0.4252   17.5476 N   0  0  0  0  0  0  0  0  0  0  0  0
   10.2763   -3.8748   22.1714 H   0  0  0  0  0  0  0  0  0  0  0  0
    9.9485   -3.8442   23.9095 H   0  0  0  0  0  0  0  0  0  0  0  0
    9.0099   -4.9048   22.8477 H   0  0  0  0  0  0  0  0  0  0  0  0
    7.7415   -2.9905   23.5481 H   0  0  0  0  0  0  0  0  0  0  0  0
    8.8589   -1.8314   22.9866 H   0  0  0  0  0  0  0  0  0  0  0  0
    8.6048   -2.9298   20.5813 H   0  0  0  0  0  0  0  0  0  0  0  0
    7.3455   -3.8693   21.2122 H   0  0  0  0  0  0  0  0  0  0  0  0
    5.7793   -1.0288   22.2155 H   0  0  0  0  0  0  0  0  0  0  0  0
    5.5594   -2.7973   21.5679 H   0  0  0  0  0  0  0  0  0  0  0  0
    4.4721   -3.3160   23.1248 H   0  0  0  0  0  0  0  0  0  0  0  0
    5.9574   -3.3548   23.8945 H   0  0  0  0  0  0  0  0  0  0  0  0
    4.5203   -0.6720   24.0785 H   0  0  0  0  0  0  0  0  0  0  0  0
    1.8873   -1.8381   27.7037 H   0  0  0  0  0  0  0  0  0  0  0  0
    1.1874    0.6997   28.5639 H   0  0  0  0  0  0  0  0  0  0  0  0
    2.6866    2.2354   27.1682 H   0  0  0  0  0  0  0  0  0  0  0  0
    6.4637   -0.9353   16.3437 H   0  0  0  0  0  0  0  0  0  0  0  0
    8.2538   -0.5675   14.6903 H   0  0  0  0  0  0  0  0  0  0  0  0
   10.5824    2.0050   15.7189 H   0  0  0  0  0  0  0  0  0  0  0  0
   10.3478    0.8272   14.4148 H   0  0  0  0  0  0  0  0  0  0  0  0
   11.4094    0.4359   15.7772 H   0  0  0  0  0  0  0  0  0  0  0  0
  1  2  1  0
  2  3  1  0
  3  4  1  0
  4  5  1  0
  5  6  1  0
  6  7  1  0
  7  8  1  0
  8  9  2  0
  8 10  1  0
 10 11  1  0
 11 12  2  0
 12 13  1  0
 13 14  1  0
  4 15  1  0
 15 16  2  0
 15 17  1  0
 17 18  2  0
 18 19  1  0
 19 20  1  0
 20 21  1  0
 20 22  2  0
 14 10  2  0
 22 17  1  0
  1 23  1  0
  1 24  1  0
  1 25  1  0
  2 26  1  0
  2 27  1  0
  3 28  1  0
  3 29  1  0
  5 30  1  0
  5 31  1  0
  6 32  1  0
  6 33  1  0
  7 34  1  0
 11 35  1  0
 12 36  1  0
 13 37  1  0
 18 38  1  0
 19 39  1  0
 21 40  1  0
 21 41  1  0
 21 42  1  0
M  END
>  <Energy>  (872) 
385.25165294062117

>  <compound_id>  (872) 
10618

>  <target_id>  (872) 
1

>  <reference_id>  (872) 
80

>  <inspiration_ids>  (872) 
[80, 7]

>  <energy_score>  (872) 
280.1050122487114

>  <distance_score>  (872) 
13.555827660417858

>  <path>  (872) 
/opt/xchem-fragalysis-2/maxwin/BulkDock/SCRATCH/511020/C10618-P80/C10618-P80.minimised.mol

>  <scratch_subdir>  (872) 
/opt/xchem-fragalysis-2/maxwin/BulkDock/SCRATCH/511020/C10618-P80

>  <fragmenstein_runtime>  (872) 
12.05809736251831

>  <fragmenstein_outcome>  (872) 
too moved

>  <fragmenstein_mode>  (872) 
expansion

>  <fragmenstein_error>  (872) 


$$$$
C10618-P7
     RDKit          3D

 42 43  0  0  0  0  0  0  0  0999 V2000
   10.0031   -4.5861   23.9394 C   0  0  0  0  0  0  0  0  0  0  0  0
    8.7442   -3.7352   23.8708 C   0  0  0  0  0  0  0  0  0  0  0  0
    7.7848   -4.2403   22.7728 C   0  0  0  0  0  0  0  0  0  0  0  0
    6.6249   -3.2657   22.5264 N   0  0  0  0  0  0  0  0  0  0  0  0
    5.8863   -4.2539   23.4279 C   0  0  0  0  0  0  0  0  0  0  0  0
    4.3541   -3.8787   23.7707 C   0  0  0  0  0  0  0  0  0  0  0  0
    3.6333   -3.0658   24.7904 N   0  0  0  0  0  0  0  0  0  0  0  0
    4.0677   -1.9636   25.6045 C   0  0  0  0  0  0  0  0  0  0  0  0
    5.1047   -1.3608   25.6158 O   0  0  0  0  0  0  0  0  0  0  0  0
    3.0067   -1.6222   26.6853 C   0  0  0  0  0  0  0  0  0  0  0  0
    2.7163   -0.3521   27.2870 C   0  0  0  0  0  0  0  0  0  0  0  0
    1.6697   -0.5510   28.1645 C   0  0  0  0  0  0  0  0  0  0  0  0
    1.3992   -1.8803   28.1013 N   0  0  0  0  0  0  0  0  0  0  0  0
    2.2325   -2.5630   27.2946 N   0  0  0  0  0  0  0  0  0  0  0  0
    6.4982   -3.0070   21.1493 C   0  0  0  0  0  0  0  0  0  0  0  0
    5.8416   -3.5592   20.3135 O   0  0  0  0  0  0  0  0  0  0  0  0
    7.2834   -1.7244   20.7272 C   0  0  0  0  0  0  0  0  0  0  0  0
    6.7197   -0.5401   20.4622 C   0  0  0  0  0  0  0  0  0  0  0  0
    6.5493   -0.7110   19.1427 N   0  0  0  0  0  0  0  0  0  0  0  0
    7.8243   -0.4204   18.8637 C   0  0  0  0  0  0  0  0  0  0  0  0
    8.2792    0.1753   17.2982 C   0  0  0  0  0  0  0  0  0  0  0  0
    8.3176   -1.3039   19.8357 N   0  0  0  0  0  0  0  0  0  0  0  0
    9.7595   -5.6260   24.1788 H   0  0  0  0  0  0  0  0  0  0  0  0
   10.6750   -4.2063   24.7154 H   0  0  0  0  0  0  0  0  0  0  0  0
   10.5421   -4.5684   22.9866 H   0  0  0  0  0  0  0  0  0  0  0  0
    8.2669   -3.7315   24.8536 H   0  0  0  0  0  0  0  0  0  0  0  0
    9.0267   -2.6970   23.6610 H   0  0  0  0  0  0  0  0  0  0  0  0
    8.3898   -4.1684   21.8520 H   0  0  0  0  0  0  0  0  0  0  0  0
    7.6086   -5.3319   22.7876 H   0  0  0  0  0  0  0  0  0  0  0  0
    6.3986   -4.6407   24.3028 H   0  0  0  0  0  0  0  0  0  0  0  0
    5.6914   -5.1314   22.7783 H   0  0  0  0  0  0  0  0  0  0  0  0
    3.9802   -4.8712   24.0731 H   0  0  0  0  0  0  0  0  0  0  0  0
    3.8060   -3.7422   22.8447 H   0  0  0  0  0  0  0  0  0  0  0  0
    2.6645   -3.2662   24.9993 H   0  0  0  0  0  0  0  0  0  0  0  0
    3.2039    0.5837   27.0507 H   0  0  0  0  0  0  0  0  0  0  0  0
    1.1144    0.1233   28.7992 H   0  0  0  0  0  0  0  0  0  0  0  0
    0.6794   -2.3991   28.5913 H   0  0  0  0  0  0  0  0  0  0  0  0
    7.2229    0.3827   20.7654 H   0  0  0  0  0  0  0  0  0  0  0  0
    5.7776   -0.6986   18.4753 H   0  0  0  0  0  0  0  0  0  0  0  0
    7.7188   -0.3403   16.5098 H   0  0  0  0  0  0  0  0  0  0  0  0
    9.3350    0.1391   17.0076 H   0  0  0  0  0  0  0  0  0  0  0  0
    8.1024    1.2581   17.2467 H   0  0  0  0  0  0  0  0  0  0  0  0
  1  2  1  0
  2  3  1  0
  3  4  1  0
  4  5  1  0
  5  6  1  0
  6  7  1  0
  7  8  1  0
  8  9  2  0
  8 10  1  0
 10 11  1  0
 11 12  2  0
 12 13  1  0
 13 14  1  0
  4 15  1  0
 15 16  2  0
 15 17  1  0
 17 18  2  0
 18 19  1  0
 19 20  1  0
 20 21  1  0
 20 22  2  0
 14 10  2  0
 22 17  1  0
  1 23  1  0
  1 24  1  0
  1 25  1  0
  2 26  1  0
  2 27  1  0
  3 28  1  0
  3 29  1  0
  5 30  1  0
  5 31  1  0
  6 32  1  0
  6 33  1  0
  7 34  1  0
 11 35  1  0
 12 36  1  0
 13 37  1  0
 18 38  1  0
 19 39  1  0
 21 40  1  0
 21 41  1  0
 21 42  1  0
M  END
>  <Energy>  (873) 
308.07139624782678

>  <compound_id>  (873) 
10618

>  <target_id>  (873) 
1

>  <reference_id>  (873) 
7

>  <inspiration_ids>  (873) 
[80, 7]

>  <energy_score>  (873) 
202.92475555592068

>  <distance_score>  (873) 
13.345230730178267

>  <path>  (873) 
/opt/xchem-fragalysis-2/maxwin/BulkDock/SCRATCH/511020/C10618-P7/C10618-P7.minimised.mol

>  <scratch_subdir>  (873) 
/opt/xchem-fragalysis-2/maxwin/BulkDock/SCRATCH/511020/C10618-P7

>  <fragmenstein_runtime>  (873) 
16.143909692764282

>  <fragmenstein_outcome>  (873) 
too moved

>  <fragmenstein_mode>  (873) 
expansion

>  <fragmenstein_error>  (873) 


$$$$
C10619-P80
     RDKit          3D

 42 43  0  0  0  0  0  0  0  0999 V2000
    2.8881    3.7940   24.6328 C   0  0  0  0  0  0  0  0  0  0  0  0
    3.2322    3.3046   23.2274 C   0  0  0  0  0  0  0  0  0  0  0  0
    3.5243    1.6879   23.2355 C   0  0  0  0  0  0  0  0  0  0  0  0
    4.8444    0.6925   22.2319 N   0  0  0  0  0  0  0  0  0  0  0  0
    4.8934   -0.2940   23.9276 C   0  0  0  0  0  0  0  0  0  0  0  0
    4.5121   -0.0646   25.5749 C   0  0  0  0  0  0  0  0  0  0  0  0
    3.2096   -0.1416   26.2518 N   0  0  0  0  0  0  0  0  0  0  0  0
    2.5932    0.7369   27.2324 C   0  0  0  0  0  0  0  0  0  0  0  0
    2.9581    1.7877   27.6757 O   0  0  0  0  0  0  0  0  0  0  0  0
    1.2997    0.1918   27.8435 C   0  0  0  0  0  0  0  0  0  0  0  0
    0.3508    0.9331   28.6386 C   0  0  0  0  0  0  0  0  0  0  0  0
   -0.6542    0.0558   28.9775 C   0  0  0  0  0  0  0  0  0  0  0  0
   -0.2937   -1.1311   28.4160 N   0  0  0  0  0  0  0  0  0  0  0  0
    0.8881   -1.0895   27.7575 N   0  0  0  0  0  0  0  0  0  0  0  0
    6.5159    1.3031   21.5887 C   0  0  0  0  0  0  0  0  0  0  0  0
    7.0965    2.3513   21.7668 O   0  0  0  0  0  0  0  0  0  0  0  0
    7.4358    0.2864   20.2856 C   0  0  0  0  0  0  0  0  0  0  0  0
    7.5622    1.7733   19.2729 N   0  0  0  0  0  0  0  0  0  0  0  0
    8.0372    1.7024   17.9967 C   0  0  0  0  0  0  0  0  0  0  0  0
    8.1363    0.3040   17.7500 N   0  0  0  0  0  0  0  0  0  0  0  0
    7.2255   -0.3712   18.9131 C   0  0  0  0  0  0  0  0  0  0  0  0
    5.9080   -1.0975   17.9029 C   0  0  0  0  0  0  0  0  0  0  0  0
    2.6220    4.8555   24.6063 H   0  0  0  0  0  0  0  0  0  0  0  0
    3.7351    3.6762   25.3146 H   0  0  0  0  0  0  0  0  0  0  0  0
    2.0339    3.2439   25.0403 H   0  0  0  0  0  0  0  0  0  0  0  0
    4.0206    3.9469   22.8217 H   0  0  0  0  0  0  0  0  0  0  0  0
    2.3484    3.4957   22.6011 H   0  0  0  0  0  0  0  0  0  0  0  0
    3.1246    1.2970   24.1825 H   0  0  0  0  0  0  0  0  0  0  0  0
    2.8173    1.6044   22.3966 H   0  0  0  0  0  0  0  0  0  0  0  0
    4.3639   -1.2677   23.7250 H   0  0  0  0  0  0  0  0  0  0  0  0
    5.6746   -1.0459   23.9788 H   0  0  0  0  0  0  0  0  0  0  0  0
    5.0768    0.7384   26.0601 H   0  0  0  0  0  0  0  0  0  0  0  0
    4.9933   -0.9504   26.0185 H   0  0  0  0  0  0  0  0  0  0  0  0
    2.6552   -0.9988   26.1765 H   0  0  0  0  0  0  0  0  0  0  0  0
    0.4218    1.9813   28.8982 H   0  0  0  0  0  0  0  0  0  0  0  0
   -1.5685    0.1713   29.5406 H   0  0  0  0  0  0  0  0  0  0  0  0
   -0.8023   -2.0108   28.4252 H   0  0  0  0  0  0  0  0  0  0  0  0
    8.2114    2.4804   17.2664 H   0  0  0  0  0  0  0  0  0  0  0  0
    8.0047   -0.0059   16.8031 H   0  0  0  0  0  0  0  0  0  0  0  0
    4.8240   -0.9719   17.8684 H   0  0  0  0  0  0  0  0  0  0  0  0
    5.6547   -2.0237   18.3464 H   0  0  0  0  0  0  0  0  0  0  0  0
    6.2108   -1.0190   16.8358 H   0  0  0  0  0  0  0  0  0  0  0  0
  1  2  1  0
  2  3  1  0
  3  4  1  0
  4  5  1  0
  5  6  1  0
  6  7  1  0
  7  8  1  0
  8  9  2  0
  8 10  1  0
 10 11  1  0
 11 12  2  0
 12 13  1  0
 13 14  1  0
  4 15  1  0
 15 16  2  0
 15 17  1  0
 17 18  1  0
 18 19  2  0
 19 20  1  0
 20 21  1  0
 21 22  1  0
 14 10  2  0
 21 17  2  0
  1 23  1  0
  1 24  1  0
  1 25  1  0
  2 26  1  0
  2 27  1  0
  3 28  1  0
  3 29  1  0
  5 30  1  0
  5 31  1  0
  6 32  1  0
  6 33  1  0
  7 34  1  0
 11 35  1  0
 12 36  1  0
 13 37  1  0
 19 38  1  0
 20 39  1  0
 22 40  1  0
 22 41  1  0
 22 42  1  0
M  END
>  <Energy>  (874) 
648.71037583616953

>  <compound_id>  (874) 
10619

>  <target_id>  (874) 
1

>  <reference_id>  (874) 
80

>  <inspiration_ids>  (874) 
[80, 7]

>  <energy_score>  (874) 
547.4045059139269

>  <distance_score>  (874) 
11.82950925100452

>  <path>  (874) 
/opt/xchem-fragalysis-2/maxwin/BulkDock/SCRATCH/511020/C10619-P80/C10619-P80.minimised.mol

>  <scratch_subdir>  (874) 
/opt/xchem-fragalysis-2/maxwin/BulkDock/SCRATCH/511020/C10619-P80

>  <fragmenstein_runtime>  (874) 
10.268260478973389

>  <fragmenstein_outcome>  (874) 
too moved

>  <fragmenstein_mode>  (874) 
expansion

>  <fragmenstein_error>  (874) 


$$$$
C10619-P7
     RDKit          3D

 42 43  0  0  0  0  0  0  0  0999 V2000
    2.7985    2.4155   24.3515 C   0  0  0  0  0  0  0  0  0  0  0  0
    3.3624    2.1281   22.9547 C   0  0  0  0  0  0  0  0  0  0  0  0
    4.6407    0.7303   22.7510 C   0  0  0  0  0  0  0  0  0  0  0  0
    5.1219   -0.0730   21.4902 N   0  0  0  0  0  0  0  0  0  0  0  0
    4.9089   -1.4278   22.9640 C   0  0  0  0  0  0  0  0  0  0  0  0
    3.7903   -1.9797   24.2274 C   0  0  0  0  0  0  0  0  0  0  0  0
    3.2305   -1.2095   25.3930 N   0  0  0  0  0  0  0  0  0  0  0  0
    2.7522   -1.6627   26.6985 C   0  0  0  0  0  0  0  0  0  0  0  0
    2.7633   -2.7501   27.1974 O   0  0  0  0  0  0  0  0  0  0  0  0
    2.0123   -0.6496   27.5682 C   0  0  0  0  0  0  0  0  0  0  0  0
    1.1511   -1.0355   28.6725 C   0  0  0  0  0  0  0  0  0  0  0  0
    0.5022    0.0982   29.0910 C   0  0  0  0  0  0  0  0  0  0  0  0
    0.9827    1.0862   28.2896 N   0  0  0  0  0  0  0  0  0  0  0  0
    1.8853    0.6761   27.3641 N   0  0  0  0  0  0  0  0  0  0  0  0
    6.7036    0.0988   20.4373 C   0  0  0  0  0  0  0  0  0  0  0  0
    7.5811    0.8564   20.7799 O   0  0  0  0  0  0  0  0  0  0  0  0
    7.0847   -0.5318   18.8367 C   0  0  0  0  0  0  0  0  0  0  0  0
    5.9502   -1.0684   17.7328 N   0  0  0  0  0  0  0  0  0  0  0  0
    6.3825   -0.9265   16.4208 C   0  0  0  0  0  0  0  0  0  0  0  0
    7.6940   -0.5250   16.3451 N   0  0  0  0  0  0  0  0  0  0  0  0
    7.9966    0.1326   17.5773 C   0  0  0  0  0  0  0  0  0  0  0  0
    8.5543    1.5375   17.1478 C   0  0  0  0  0  0  0  0  0  0  0  0
    3.4109    3.1403   24.8974 H   0  0  0  0  0  0  0  0  0  0  0  0
    2.7132    1.5313   24.9607 H   0  0  0  0  0  0  0  0  0  0  0  0
    1.8060    2.8709   24.2648 H   0  0  0  0  0  0  0  0  0  0  0  0
    3.7173    3.1140   22.6292 H   0  0  0  0  0  0  0  0  0  0  0  0
    2.5422    1.9584   22.2457 H   0  0  0  0  0  0  0  0  0  0  0  0
    4.6427    0.3387   23.7995 H   0  0  0  0  0  0  0  0  0  0  0  0
    3.9070    0.7971   21.9356 H   0  0  0  0  0  0  0  0  0  0  0  0
    5.2327   -2.2829   22.4193 H   0  0  0  0  0  0  0  0  0  0  0  0
    5.5819   -1.3920   23.8667 H   0  0  0  0  0  0  0  0  0  0  0  0
    2.9915   -2.5071   23.7129 H   0  0  0  0  0  0  0  0  0  0  0  0
    4.2898   -2.7784   24.7595 H   0  0  0  0  0  0  0  0  0  0  0  0
    3.1359   -0.2103   25.3368 H   0  0  0  0  0  0  0  0  0  0  0  0
    1.0160   -2.0435   29.0420 H   0  0  0  0  0  0  0  0  0  0  0  0
   -0.2346    0.2816   29.8585 H   0  0  0  0  0  0  0  0  0  0  0  0
    0.7429    2.0722   28.3090 H   0  0  0  0  0  0  0  0  0  0  0  0
    5.7916   -1.1653   15.5427 H   0  0  0  0  0  0  0  0  0  0  0  0
    8.1109   -0.2931   15.4519 H   0  0  0  0  0  0  0  0  0  0  0  0
    8.1594    2.3499   17.7676 H   0  0  0  0  0  0  0  0  0  0  0  0
    9.6470    1.5382   17.0995 H   0  0  0  0  0  0  0  0  0  0  0  0
    8.2243    1.7925   16.1352 H   0  0  0  0  0  0  0  0  0  0  0  0
  1  2  1  0
  2  3  1  0
  3  4  1  0
  4  5  1  0
  5  6  1  0
  6  7  1  0
  7  8  1  0
  8  9  2  0
  8 10  1  0
 10 11  1  0
 11 12  2  0
 12 13  1  0
 13 14  1  0
  4 15  1  0
 15 16  2  0
 15 17  1  0
 17 18  1  0
 18 19  2  0
 19 20  1  0
 20 21  1  0
 21 22  1  0
 14 10  2  0
 21 17  2  0
  1 23  1  0
  1 24  1  0
  1 25  1  0
  2 26  1  0
  2 27  1  0
  3 28  1  0
  3 29  1  0
  5 30  1  0
  5 31  1  0
  6 32  1  0
  6 33  1  0
  7 34  1  0
 11 35  1  0
 12 36  1  0
 13 37  1  0
 19 38  1  0
 20 39  1  0
 22 40  1  0
 22 41  1  0
 22 42  1  0
M  END
>  <Energy>  (875) 
637.50968001332626

>  <compound_id>  (875) 
10619

>  <target_id>  (875) 
1

>  <reference_id>  (875) 
7

>  <inspiration_ids>  (875) 
[80, 7]

>  <energy_score>  (875) 
536.203810091084

>  <distance_score>  (875) 
12.498026867092348

>  <path>  (875) 
/opt/xchem-fragalysis-2/maxwin/BulkDock/SCRATCH/511020/C10619-P7/C10619-P7.minimised.mol

>  <scratch_subdir>  (875) 
/opt/xchem-fragalysis-2/maxwin/BulkDock/SCRATCH/511020/C10619-P7

>  <fragmenstein_runtime>  (875) 
14.074321746826172

>  <fragmenstein_outcome>  (875) 
too moved

>  <fragmenstein_mode>  (875) 
expansion

>  <fragmenstein_error>  (875) 


$$$$
C10620-P80
     RDKit          3D

 42 43  0  0  0  0  0  0  0  0999 V2000
    8.5026    1.0086   24.5410 C   0  0  0  0  0  0  0  0  0  0  0  0
    8.3617   -0.5013   24.4126 C   0  0  0  0  0  0  0  0  0  0  0  0
    7.2334   -0.8767   23.4328 C   0  0  0  0  0  0  0  0  0  0  0  0
    7.0480   -2.3428   23.1903 N   0  0  0  0  0  0  0  0  0  0  0  0
    5.6992   -2.0506   24.2462 C   0  0  0  0  0  0  0  0  0  0  0  0
    5.6241   -1.2022   25.6225 C   0  0  0  0  0  0  0  0  0  0  0  0
    4.3212   -1.3077   26.3633 N   0  0  0  0  0  0  0  0  0  0  0  0
    4.0280   -1.7553   27.7110 C   0  0  0  0  0  0  0  0  0  0  0  0
    4.7423   -2.2294   28.5494 O   0  0  0  0  0  0  0  0  0  0  0  0
    2.5719   -1.5529   28.1393 C   0  0  0  0  0  0  0  0  0  0  0  0
    1.9516   -2.1091   29.3193 C   0  0  0  0  0  0  0  0  0  0  0  0
    0.6439   -1.6834   29.3247 C   0  0  0  0  0  0  0  0  0  0  0  0
    0.5222   -0.9189   28.2071 N   0  0  0  0  0  0  0  0  0  0  0  0
    1.6736   -0.7644   27.5116 N   0  0  0  0  0  0  0  0  0  0  0  0
    7.9075   -3.6144   23.6726 C   0  0  0  0  0  0  0  0  0  0  0  0
    8.8448   -3.5607   24.4332 O   0  0  0  0  0  0  0  0  0  0  0  0
    7.7356   -5.3291   23.0308 C   0  0  0  0  0  0  0  0  0  0  0  0
    8.6070   -6.4032   23.5145 C   0  0  0  0  0  0  0  0  0  0  0  0
    8.7613   -7.4019   22.5946 N   0  0  0  0  0  0  0  0  0  0  0  0
    9.5092   -8.6196   22.7744 C   0  0  0  0  0  0  0  0  0  0  0  0
    8.2251   -6.9730   21.4450 C   0  0  0  0  0  0  0  0  0  0  0  0
    7.7763   -5.7553   21.6005 N   0  0  0  0  0  0  0  0  0  0  0  0
    7.5862    1.4589   24.9345 H   0  0  0  0  0  0  0  0  0  0  0  0
    8.7215    1.4653   23.5704 H   0  0  0  0  0  0  0  0  0  0  0  0
    9.3217    1.2554   25.2238 H   0  0  0  0  0  0  0  0  0  0  0  0
    8.2091   -0.9353   25.4024 H   0  0  0  0  0  0  0  0  0  0  0  0
    9.3181   -0.9022   24.0613 H   0  0  0  0  0  0  0  0  0  0  0  0
    6.3617   -0.2040   23.4259 H   0  0  0  0  0  0  0  0  0  0  0  0
    7.6389   -0.5689   22.4576 H   0  0  0  0  0  0  0  0  0  0  0  0
    4.9640   -1.6157   23.5579 H   0  0  0  0  0  0  0  0  0  0  0  0
    5.1797   -2.9109   24.5971 H   0  0  0  0  0  0  0  0  0  0  0  0
    6.4012   -1.5295   26.3176 H   0  0  0  0  0  0  0  0  0  0  0  0
    5.7481   -0.1320   25.4407 H   0  0  0  0  0  0  0  0  0  0  0  0
    3.4843   -0.8820   25.9652 H   0  0  0  0  0  0  0  0  0  0  0  0
    2.4337   -2.7505   30.0443 H   0  0  0  0  0  0  0  0  0  0  0  0
   -0.1843   -1.8653   29.9931 H   0  0  0  0  0  0  0  0  0  0  0  0
   -0.3105   -0.4609   27.8534 H   0  0  0  0  0  0  0  0  0  0  0  0
    9.2827   -6.4188   24.3628 H   0  0  0  0  0  0  0  0  0  0  0  0
   10.5662   -8.4015   22.6026 H   0  0  0  0  0  0  0  0  0  0  0  0
    9.1556   -9.3691   22.0615 H   0  0  0  0  0  0  0  0  0  0  0  0
    9.3548   -8.9817   23.7941 H   0  0  0  0  0  0  0  0  0  0  0  0
    8.2170   -7.5560   20.5411 H   0  0  0  0  0  0  0  0  0  0  0  0
  1  2  1  0
  2  3  1  0
  3  4  1  0
  4  5  1  0
  5  6  1  0
  6  7  1  0
  7  8  1  0
  8  9  2  0
  8 10  1  0
 10 11  1  0
 11 12  2  0
 12 13  1  0
 13 14  1  0
  4 15  1  0
 15 16  2  0
 15 17  1  0
 17 18  2  0
 18 19  1  0
 19 20  1  0
 19 21  1  0
 21 22  2  0
 14 10  2  0
 22 17  1  0
  1 23  1  0
  1 24  1  0
  1 25  1  0
  2 26  1  0
  2 27  1  0
  3 28  1  0
  3 29  1  0
  5 30  1  0
  5 31  1  0
  6 32  1  0
  6 33  1  0
  7 34  1  0
 11 35  1  0
 12 36  1  0
 13 37  1  0
 18 38  1  0
 20 39  1  0
 20 40  1  0
 20 41  1  0
 21 42  1  0
M  END
>  <Energy>  (876) 
263.8952644032488

>  <compound_id>  (876) 
10620

>  <target_id>  (876) 
1

>  <reference_id>  (876) 
80

>  <inspiration_ids>  (876) 
[80, 7]

>  <energy_score>  (876) 
161.7399399212452

>  <distance_score>  (876) 
13.331736569837895

>  <path>  (876) 
/opt/xchem-fragalysis-2/maxwin/BulkDock/SCRATCH/511020/C10620-P80/C10620-P80.minimised.mol

>  <scratch_subdir>  (876) 
/opt/xchem-fragalysis-2/maxwin/BulkDock/SCRATCH/511020/C10620-P80

>  <fragmenstein_runtime>  (876) 
17.064308643341064

>  <fragmenstein_outcome>  (876) 
too moved

>  <fragmenstein_mode>  (876) 
expansion

>  <fragmenstein_error>  (876) 


$$$$
C10620-P7
     RDKit          3D

 42 43  0  0  0  0  0  0  0  0999 V2000
    0.0064   -3.6419   31.9657 C   0  0  0  0  0  0  0  0  0  0  0  0
    0.2082   -3.1361   30.5422 C   0  0  0  0  0  0  0  0  0  0  0  0
    1.0266   -1.8183   30.5266 C   0  0  0  0  0  0  0  0  0  0  0  0
    1.6789   -1.3289   29.2693 N   0  0  0  0  0  0  0  0  0  0  0  0
    0.2286   -0.9016   28.9436 C   0  0  0  0  0  0  0  0  0  0  0  0
   -0.5795    0.1840   29.7436 C   0  0  0  0  0  0  0  0  0  0  0  0
   -1.5480   -0.2883   30.7414 N   0  0  0  0  0  0  0  0  0  0  0  0
   -1.9619    0.2795   31.9925 C   0  0  0  0  0  0  0  0  0  0  0  0
   -1.5667    1.2423   32.5807 O   0  0  0  0  0  0  0  0  0  0  0  0
   -3.1353   -0.4459   32.5919 C   0  0  0  0  0  0  0  0  0  0  0  0
   -3.9472    0.0271   33.6748 C   0  0  0  0  0  0  0  0  0  0  0  0
   -4.9147   -0.9264   33.8721 C   0  0  0  0  0  0  0  0  0  0  0  0
   -4.6393   -1.9082   32.9722 N   0  0  0  0  0  0  0  0  0  0  0  0
   -3.5991   -1.6367   32.1524 N   0  0  0  0  0  0  0  0  0  0  0  0
    2.2401   -2.0533   28.1624 C   0  0  0  0  0  0  0  0  0  0  0  0
    2.2454   -3.2320   27.9252 O   0  0  0  0  0  0  0  0  0  0  0  0
    3.0291   -1.1833   27.2131 C   0  0  0  0  0  0  0  0  0  0  0  0
    3.7493   -1.6644   26.1234 C   0  0  0  0  0  0  0  0  0  0  0  0
    4.5123   -0.6323   25.6704 N   0  0  0  0  0  0  0  0  0  0  0  0
    5.5467   -0.7063   24.6759 C   0  0  0  0  0  0  0  0  0  0  0  0
    4.1574    0.4727   26.3802 C   0  0  0  0  0  0  0  0  0  0  0  0
    3.2763    0.1843   27.3204 N   0  0  0  0  0  0  0  0  0  0  0  0
    0.9655   -3.8542   32.4485 H   0  0  0  0  0  0  0  0  0  0  0  0
   -0.5294   -2.9039   32.5709 H   0  0  0  0  0  0  0  0  0  0  0  0
   -0.5808   -4.5659   31.9587 H   0  0  0  0  0  0  0  0  0  0  0  0
    0.7285   -3.9077   29.9644 H   0  0  0  0  0  0  0  0  0  0  0  0
   -0.7839   -3.0181   30.0972 H   0  0  0  0  0  0  0  0  0  0  0  0
    0.7042   -1.0399   31.2273 H   0  0  0  0  0  0  0  0  0  0  0  0
    1.9429   -2.1328   31.0576 H   0  0  0  0  0  0  0  0  0  0  0  0
   -0.3935   -1.7414   28.6006 H   0  0  0  0  0  0  0  0  0  0  0  0
    0.3938   -0.3811   27.9844 H   0  0  0  0  0  0  0  0  0  0  0  0
    0.0941    0.9048   30.2203 H   0  0  0  0  0  0  0  0  0  0  0  0
   -1.1879    0.7478   29.0259 H   0  0  0  0  0  0  0  0  0  0  0  0
   -2.1661   -1.0639   30.5092 H   0  0  0  0  0  0  0  0  0  0  0  0
   -3.8130    0.9496   34.2241 H   0  0  0  0  0  0  0  0  0  0  0  0
   -5.7306   -1.0038   34.5762 H   0  0  0  0  0  0  0  0  0  0  0  0
   -5.1216   -2.7911   32.8542 H   0  0  0  0  0  0  0  0  0  0  0  0
    3.8050   -2.6548   25.7005 H   0  0  0  0  0  0  0  0  0  0  0  0
    6.4908   -0.9237   25.1822 H   0  0  0  0  0  0  0  0  0  0  0  0
    5.6161    0.2510   24.1531 H   0  0  0  0  0  0  0  0  0  0  0  0
    5.3149   -1.5010   23.9646 H   0  0  0  0  0  0  0  0  0  0  0  0
    4.5788    1.4514   26.1961 H   0  0  0  0  0  0  0  0  0  0  0  0
  1  2  1  0
  2  3  1  0
  3  4  1  0
  4  5  1  0
  5  6  1  0
  6  7  1  0
  7  8  1  0
  8  9  2  0
  8 10  1  0
 10 11  1  0
 11 12  2  0
 12 13  1  0
 13 14  1  0
  4 15  1  0
 15 16  2  0
 15 17  1  0
 17 18  2  0
 18 19  1  0
 19 20  1  0
 19 21  1  0
 21 22  2  0
 14 10  2  0
 22 17  1  0
  1 23  1  0
  1 24  1  0
  1 25  1  0
  2 26  1  0
  2 27  1  0
  3 28  1  0
  3 29  1  0
  5 30  1  0
  5 31  1  0
  6 32  1  0
  6 33  1  0
  7 34  1  0
 11 35  1  0
 12 36  1  0
 13 37  1  0
 18 38  1  0
 20 39  1  0
 20 40  1  0
 20 41  1  0
 21 42  1  0
M  END
>  <Energy>  (877) 
149.99879312286802

>  <compound_id>  (877) 
10620

>  <target_id>  (877) 
1

>  <reference_id>  (877) 
7

>  <inspiration_ids>  (877) 
[80, 7]

>  <energy_score>  (877) 
47.843468640865126

>  <distance_score>  (877) 
11.62769031228861

>  <path>  (877) 
/opt/xchem-fragalysis-2/maxwin/BulkDock/SCRATCH/511020/C10620-P7/C10620-P7.minimised.mol

>  <scratch_subdir>  (877) 
/opt/xchem-fragalysis-2/maxwin/BulkDock/SCRATCH/511020/C10620-P7

>  <fragmenstein_runtime>  (877) 
24.114085912704468

>  <fragmenstein_outcome>  (877) 
too moved

>  <fragmenstein_mode>  (877) 
expansion

>  <fragmenstein_error>  (877) 


$$$$
C10621-P80
     RDKit          3D

 48 49  0  0  0  0  0  0  0  0999 V2000
    2.2351    3.5730   24.1171 C   0  0  0  0  0  0  0  0  0  0  0  0
    3.1034    3.2824   22.8933 C   0  0  0  0  0  0  0  0  0  0  0  0
    3.5976    1.6262   22.8786 C   0  0  0  0  0  0  0  0  0  0  0  0
    4.8521    0.5297   21.8229 N   0  0  0  0  0  0  0  0  0  0  0  0
    4.8614   -0.4877   23.4853 C   0  0  0  0  0  0  0  0  0  0  0  0
    4.4679   -0.3292   25.1908 C   0  0  0  0  0  0  0  0  0  0  0  0
    3.2212   -0.4012   25.9637 N   0  0  0  0  0  0  0  0  0  0  0  0
    2.7217    0.4348   27.0489 C   0  0  0  0  0  0  0  0  0  0  0  0
    3.1673    1.4385   27.5282 O   0  0  0  0  0  0  0  0  0  0  0  0
    1.4401   -0.0741   27.7203 C   0  0  0  0  0  0  0  0  0  0  0  0
    0.5284    0.7127   28.5169 C   0  0  0  0  0  0  0  0  0  0  0  0
   -0.4918   -0.1274   28.9014 C   0  0  0  0  0  0  0  0  0  0  0  0
   -0.1732   -1.3373   28.3658 N   0  0  0  0  0  0  0  0  0  0  0  0
    1.0058   -1.3510   27.7019 N   0  0  0  0  0  0  0  0  0  0  0  0
    6.2774    1.4925   21.0440 C   0  0  0  0  0  0  0  0  0  0  0  0
    7.3684    1.7036   21.5010 O   0  0  0  0  0  0  0  0  0  0  0  0
    6.1102    2.3627   19.5452 C   0  0  0  0  0  0  0  0  0  0  0  0
    7.1178    2.7389   18.6420 C   0  0  0  0  0  0  0  0  0  0  0  0
    6.6856    3.7438   17.8142 N   0  0  0  0  0  0  0  0  0  0  0  0
    7.3866    4.3671   16.6988 C   0  0  0  0  0  0  0  0  0  0  0  0
    7.8624    5.7708   17.0798 C   0  0  0  0  0  0  0  0  0  0  0  0
    8.5628    3.5516   16.1560 C   0  0  0  0  0  0  0  0  0  0  0  0
    5.4270    4.0540   18.2014 C   0  0  0  0  0  0  0  0  0  0  0  0
    5.0750    3.3411   19.2417 N   0  0  0  0  0  0  0  0  0  0  0  0
    1.3332    2.9583   24.1336 H   0  0  0  0  0  0  0  0  0  0  0  0
    2.7934    3.3914   25.0408 H   0  0  0  0  0  0  0  0  0  0  0  0
    1.9224    4.6221   24.1127 H   0  0  0  0  0  0  0  0  0  0  0  0
    3.9259    4.0091   22.9290 H   0  0  0  0  0  0  0  0  0  0  0  0
    2.5161    3.4883   21.9875 H   0  0  0  0  0  0  0  0  0  0  0  0
    2.8008    1.4882   22.1300 H   0  0  0  0  0  0  0  0  0  0  0  0
    3.3213    1.3522   23.9178 H   0  0  0  0  0  0  0  0  0  0  0  0
    4.4181   -1.4689   23.1832 H   0  0  0  0  0  0  0  0  0  0  0  0
    5.6607   -1.1506   23.6406 H   0  0  0  0  0  0  0  0  0  0  0  0
    5.0715    0.4108   25.7158 H   0  0  0  0  0  0  0  0  0  0  0  0
    4.9227   -1.2585   25.5587 H   0  0  0  0  0  0  0  0  0  0  0  0
    2.6248   -1.2295   25.8781 H   0  0  0  0  0  0  0  0  0  0  0  0
    0.6281    1.7672   28.7382 H   0  0  0  0  0  0  0  0  0  0  0  0
   -1.3947    0.0307   29.4721 H   0  0  0  0  0  0  0  0  0  0  0  0
   -0.7110   -2.1983   28.3957 H   0  0  0  0  0  0  0  0  0  0  0  0
    8.0073    2.2295   18.3495 H   0  0  0  0  0  0  0  0  0  0  0  0
    6.6431    4.4519   15.8952 H   0  0  0  0  0  0  0  0  0  0  0  0
    7.0244    6.4036   17.3922 H   0  0  0  0  0  0  0  0  0  0  0  0
    8.3505    6.2608   16.2306 H   0  0  0  0  0  0  0  0  0  0  0  0
    8.5766    5.7354   17.9103 H   0  0  0  0  0  0  0  0  0  0  0  0
    8.9334    3.9873   15.2220 H   0  0  0  0  0  0  0  0  0  0  0  0
    8.2697    2.5174   15.9537 H   0  0  0  0  0  0  0  0  0  0  0  0
    9.3986    3.5285   16.8633 H   0  0  0  0  0  0  0  0  0  0  0  0
    4.8171    4.8025   17.7123 H   0  0  0  0  0  0  0  0  0  0  0  0
  1  2  1  0
  2  3  1  0
  3  4  1  0
  4  5  1  0
  5  6  1  0
  6  7  1  0
  7  8  1  0
  8  9  2  0
  8 10  1  0
 10 11  1  0
 11 12  2  0
 12 13  1  0
 13 14  1  0
  4 15  1  0
 15 16  2  0
 15 17  1  0
 17 18  2  0
 18 19  1  0
 19 20  1  0
 20 21  1  0
 20 22  1  0
 19 23  1  0
 23 24  2  0
 14 10  2  0
 24 17  1  0
  1 25  1  0
  1 26  1  0
  1 27  1  0
  2 28  1  0
  2 29  1  0
  3 30  1  0
  3 31  1  0
  5 32  1  0
  5 33  1  0
  6 34  1  0
  6 35  1  0
  7 36  1  0
 11 37  1  0
 12 38  1  0
 13 39  1  0
 18 40  1  0
 20 41  1  0
 21 42  1  0
 21 43  1  0
 21 44  1  0
 22 45  1  0
 22 46  1  0
 22 47  1  0
 23 48  1  0
M  END
>  <Energy>  (878) 
475.14226991352325

>  <compound_id>  (878) 
10621

>  <target_id>  (878) 
1

>  <reference_id>  (878) 
80

>  <inspiration_ids>  (878) 
[80, 7]

>  <energy_score>  (878) 
359.8233315451452

>  <distance_score>  (878) 
12.563453367987542

>  <path>  (878) 
/opt/xchem-fragalysis-2/maxwin/BulkDock/SCRATCH/511020/C10621-P80/C10621-P80.minimised.mol

>  <scratch_subdir>  (878) 
/opt/xchem-fragalysis-2/maxwin/BulkDock/SCRATCH/511020/C10621-P80

>  <fragmenstein_runtime>  (878) 
10.735104322433472

>  <fragmenstein_outcome>  (878) 
too moved

>  <fragmenstein_mode>  (878) 
expansion

>  <fragmenstein_error>  (878) 


$$$$
C10621-P7
     RDKit          3D

 48 49  0  0  0  0  0  0  0  0999 V2000
    3.2382    0.1629   25.6586 C   0  0  0  0  0  0  0  0  0  0  0  0
    3.1194   -1.3578   25.1852 C   0  0  0  0  0  0  0  0  0  0  0  0
    3.8360   -2.1389   23.9072 C   0  0  0  0  0  0  0  0  0  0  0  0
    5.0742   -1.3869   23.5461 N   0  0  0  0  0  0  0  0  0  0  0  0
    5.3500   -1.6635   24.9453 C   0  0  0  0  0  0  0  0  0  0  0  0
    5.4128   -1.2200   26.7208 C   0  0  0  0  0  0  0  0  0  0  0  0
    4.2939   -1.5188   27.6501 N   0  0  0  0  0  0  0  0  0  0  0  0
    3.7298   -0.7444   28.7349 C   0  0  0  0  0  0  0  0  0  0  0  0
    4.0743    0.2995   29.2093 O   0  0  0  0  0  0  0  0  0  0  0  0
    2.4268   -1.3283   29.2769 C   0  0  0  0  0  0  0  0  0  0  0  0
    1.5712   -0.7141   30.2633 C   0  0  0  0  0  0  0  0  0  0  0  0
    0.4478   -1.5017   30.3570 C   0  0  0  0  0  0  0  0  0  0  0  0
    0.6472   -2.5091   29.4634 N   0  0  0  0  0  0  0  0  0  0  0  0
    1.8473   -2.4680   28.8369 N   0  0  0  0  0  0  0  0  0  0  0  0
    5.8483   -2.0308   22.0504 C   0  0  0  0  0  0  0  0  0  0  0  0
    6.6939   -2.9134   22.0083 O   0  0  0  0  0  0  0  0  0  0  0  0
    5.6187   -1.3181   20.5180 C   0  0  0  0  0  0  0  0  0  0  0  0
    6.0743   -1.1930   19.1765 C   0  0  0  0  0  0  0  0  0  0  0  0
    7.2568   -0.2336   18.8959 N   0  0  0  0  0  0  0  0  0  0  0  0
    7.9340    0.2515   17.3475 C   0  0  0  0  0  0  0  0  0  0  0  0
    8.1003    1.8449   17.1458 C   0  0  0  0  0  0  0  0  0  0  0  0
    9.0672   -0.2843   16.3900 C   0  0  0  0  0  0  0  0  0  0  0  0
    6.8116    0.6290   19.8783 C   0  0  0  0  0  0  0  0  0  0  0  0
    5.8339    0.1003   20.6043 N   0  0  0  0  0  0  0  0  0  0  0  0
    2.5460    0.3173   26.4968 H   0  0  0  0  0  0  0  0  0  0  0  0
    4.1803    0.5543   26.0097 H   0  0  0  0  0  0  0  0  0  0  0  0
    2.9549    0.8919   24.8934 H   0  0  0  0  0  0  0  0  0  0  0  0
    2.8890   -2.0690   25.9747 H   0  0  0  0  0  0  0  0  0  0  0  0
    2.2254   -1.2366   24.7011 H   0  0  0  0  0  0  0  0  0  0  0  0
    3.1172   -2.4959   23.1843 H   0  0  0  0  0  0  0  0  0  0  0  0
    4.1187   -3.1621   24.2420 H   0  0  0  0  0  0  0  0  0  0  0  0
    5.3373   -0.5673   24.9385 H   0  0  0  0  0  0  0  0  0  0  0  0
    6.4492   -1.8340   24.8509 H   0  0  0  0  0  0  0  0  0  0  0  0
    5.7155   -0.1705   26.8431 H   0  0  0  0  0  0  0  0  0  0  0  0
    6.2837   -1.7261   27.1592 H   0  0  0  0  0  0  0  0  0  0  0  0
    3.7877   -2.3991   27.5733 H   0  0  0  0  0  0  0  0  0  0  0  0
    1.7716    0.2114   30.7869 H   0  0  0  0  0  0  0  0  0  0  0  0
   -0.4576   -1.4183   30.9389 H   0  0  0  0  0  0  0  0  0  0  0  0
    0.0111   -3.2606   29.2188 H   0  0  0  0  0  0  0  0  0  0  0  0
    5.5001   -1.4258   18.2964 H   0  0  0  0  0  0  0  0  0  0  0  0
    7.1594   -0.2170   16.7105 H   0  0  0  0  0  0  0  0  0  0  0  0
    7.6107    2.4650   17.9028 H   0  0  0  0  0  0  0  0  0  0  0  0
    7.7008    2.1368   16.1690 H   0  0  0  0  0  0  0  0  0  0  0  0
    9.1587    2.1337   17.1312 H   0  0  0  0  0  0  0  0  0  0  0  0
    8.9146    0.1550   15.3934 H   0  0  0  0  0  0  0  0  0  0  0  0
    9.0324   -1.3520   16.2039 H   0  0  0  0  0  0  0  0  0  0  0  0
   10.0751    0.0379   16.6706 H   0  0  0  0  0  0  0  0  0  0  0  0
    7.0587    1.6765   19.9209 H   0  0  0  0  0  0  0  0  0  0  0  0
  1  2  1  0
  2  3  1  0
  3  4  1  0
  4  5  1  0
  5  6  1  0
  6  7  1  0
  7  8  1  0
  8  9  2  0
  8 10  1  0
 10 11  1  0
 11 12  2  0
 12 13  1  0
 13 14  1  0
  4 15  1  0
 15 16  2  0
 15 17  1  0
 17 18  2  0
 18 19  1  0
 19 20  1  0
 20 21  1  0
 20 22  1  0
 19 23  1  0
 23 24  2  0
 14 10  2  0
 24 17  1  0
  1 25  1  0
  1 26  1  0
  1 27  1  0
  2 28  1  0
  2 29  1  0
  3 30  1  0
  3 31  1  0
  5 32  1  0
  5 33  1  0
  6 34  1  0
  6 35  1  0
  7 36  1  0
 11 37  1  0
 12 38  1  0
 13 39  1  0
 18 40  1  0
 20 41  1  0
 21 42  1  0
 21 43  1  0
 21 44  1  0
 22 45  1  0
 22 46  1  0
 22 47  1  0
 23 48  1  0
M  END
>  <Energy>  (879) 
527.84226803919046

>  <compound_id>  (879) 
10621

>  <target_id>  (879) 
1

>  <reference_id>  (879) 
7

>  <inspiration_ids>  (879) 
[80, 7]

>  <energy_score>  (879) 
412.52332967081514

>  <distance_score>  (879) 
12.29596223618527

>  <path>  (879) 
/opt/xchem-fragalysis-2/maxwin/BulkDock/SCRATCH/511020/C10621-P7/C10621-P7.minimised.mol

>  <scratch_subdir>  (879) 
/opt/xchem-fragalysis-2/maxwin/BulkDock/SCRATCH/511020/C10621-P7

>  <fragmenstein_runtime>  (879) 
12.302081108093262

>  <fragmenstein_outcome>  (879) 
too moved

>  <fragmenstein_mode>  (879) 
expansion

>  <fragmenstein_error>  (879) 


$$$$
C10622-P80
     RDKit          3D

 45 46  0  0  0  0  0  0  0  0999 V2000
    8.1507    0.2240   17.7388 C   0  0  0  0  0  0  0  0  0  0  0  0
    7.4079   -0.4062   19.3586 C   0  0  0  0  0  0  0  0  0  0  0  0
    7.0232    0.4066   20.5643 N   0  0  0  0  0  0  0  0  0  0  0  0
    6.6222    1.7148   20.6317 C   0  0  0  0  0  0  0  0  0  0  0  0
    6.2199    2.0640   21.8297 N   0  0  0  0  0  0  0  0  0  0  0  0
    6.3998    0.9651   22.6557 C   0  0  0  0  0  0  0  0  0  0  0  0
    6.1522    1.0433   24.1605 C   0  0  0  0  0  0  0  0  0  0  0  0
    7.0978    0.9172   24.8850 O   0  0  0  0  0  0  0  0  0  0  0  0
    4.7682    1.3443   24.4592 N   0  0  0  0  0  0  0  0  0  0  0  0
    4.1017    1.6858   25.7344 C   0  0  0  0  0  0  0  0  0  0  0  0
    3.8195    0.6212   26.8736 C   0  0  0  0  0  0  0  0  0  0  0  0
    2.6701    0.9433   27.8092 N   0  0  0  0  0  0  0  0  0  0  0  0
    1.3787    1.5314   27.5550 C   0  0  0  0  0  0  0  0  0  0  0  0
    0.9136    1.9917   26.5515 O   0  0  0  0  0  0  0  0  0  0  0  0
    0.4623    1.4348   28.7702 C   0  0  0  0  0  0  0  0  0  0  0  0
   -0.9133    1.8485   28.8446 C   0  0  0  0  0  0  0  0  0  0  0  0
   -1.3824    1.4378   30.0709 C   0  0  0  0  0  0  0  0  0  0  0  0
   -0.3259    0.8244   30.6705 N   0  0  0  0  0  0  0  0  0  0  0  0
    0.8020    0.8114   29.9231 N   0  0  0  0  0  0  0  0  0  0  0  0
    3.5953   -0.8568   26.4511 C   0  0  0  0  0  0  0  0  0  0  0  0
    4.6637   -1.4699   25.5703 C   0  0  0  0  0  0  0  0  0  0  0  0
    3.4329   -1.7815   27.6773 C   0  0  0  0  0  0  0  0  0  0  0  0
    6.9264   -0.0688   21.8708 C   0  0  0  0  0  0  0  0  0  0  0  0
    8.0872    1.3305   17.6746 H   0  0  0  0  0  0  0  0  0  0  0  0
    7.7365   -0.2832   16.8562 H   0  0  0  0  0  0  0  0  0  0  0  0
    9.2146    0.2427   17.5330 H   0  0  0  0  0  0  0  0  0  0  0  0
    8.1006   -1.1321   19.7811 H   0  0  0  0  0  0  0  0  0  0  0  0
    6.4533   -0.9016   19.1271 H   0  0  0  0  0  0  0  0  0  0  0  0
    6.6233    2.4069   19.8004 H   0  0  0  0  0  0  0  0  0  0  0  0
    4.2233    1.2915   23.5991 H   0  0  0  0  0  0  0  0  0  0  0  0
    4.6893    2.4976   26.1796 H   0  0  0  0  0  0  0  0  0  0  0  0
    3.1512    2.1293   25.4243 H   0  0  0  0  0  0  0  0  0  0  0  0
    4.7060    0.6350   27.5220 H   0  0  0  0  0  0  0  0  0  0  0  0
    2.6882    0.5823   28.7618 H   0  0  0  0  0  0  0  0  0  0  0  0
   -1.4702    2.3503   28.0649 H   0  0  0  0  0  0  0  0  0  0  0  0
   -2.3480    1.5183   30.5486 H   0  0  0  0  0  0  0  0  0  0  0  0
   -0.2935    0.3919   31.5881 H   0  0  0  0  0  0  0  0  0  0  0  0
    2.6617   -0.9248   25.9053 H   0  0  0  0  0  0  0  0  0  0  0  0
    4.3768   -2.5006   25.3502 H   0  0  0  0  0  0  0  0  0  0  0  0
    5.6444   -1.4394   26.0528 H   0  0  0  0  0  0  0  0  0  0  0  0
    4.7476   -1.0190   24.5910 H   0  0  0  0  0  0  0  0  0  0  0  0
    4.3166   -1.7424   28.3229 H   0  0  0  0  0  0  0  0  0  0  0  0
    3.2875   -2.8176   27.3613 H   0  0  0  0  0  0  0  0  0  0  0  0
    2.5535   -1.5267   28.2756 H   0  0  0  0  0  0  0  0  0  0  0  0
    7.2070   -1.0773   22.1410 H   0  0  0  0  0  0  0  0  0  0  0  0
  1  2  1  0
  2  3  1  0
  3  4  1  0
  4  5  2  0
  5  6  1  0
  6  7  1  0
  7  8  2  0
  7  9  1  0
  9 10  1  0
 10 11  1  0
 11 12  1  0
 12 13  1  0
 13 14  2  0
 13 15  1  0
 15 16  1  0
 16 17  2  0
 17 18  1  0
 18 19  1  0
 11 20  1  0
 20 21  1  0
 20 22  1  0
  6 23  2  0
 23  3  1  0
 19 15  2  0
  1 24  1  0
  1 25  1  0
  1 26  1  0
  2 27  1  0
  2 28  1  0
  4 29  1  0
  9 30  1  0
 10 31  1  0
 10 32  1  0
 11 33  1  0
 12 34  1  0
 16 35  1  0
 17 36  1  0
 18 37  1  0
 20 38  1  0
 21 39  1  0
 21 40  1  0
 21 41  1  0
 22 42  1  0
 22 43  1  0
 22 44  1  0
 23 45  1  0
M  END
>  <Energy>  (880) 
133.94324391657671

>  <compound_id>  (880) 
10622

>  <target_id>  (880) 
1

>  <reference_id>  (880) 
80

>  <inspiration_ids>  (880) 
[80, 7]

>  <energy_score>  (880) 
26.25042144527248

>  <distance_score>  (880) 
11.97078472165457

>  <path>  (880) 
/opt/xchem-fragalysis-2/maxwin/BulkDock/SCRATCH/511020/C10622-P80/C10622-P80.minimised.mol

>  <scratch_subdir>  (880) 
/opt/xchem-fragalysis-2/maxwin/BulkDock/SCRATCH/511020/C10622-P80

>  <fragmenstein_runtime>  (880) 
16.53040361404419

>  <fragmenstein_outcome>  (880) 
too moved

>  <fragmenstein_mode>  (880) 
expansion

>  <fragmenstein_error>  (880) 


$$$$
C10622-P7
     RDKit          3D

 45 46  0  0  0  0  0  0  0  0999 V2000
    7.2576   -0.3344   25.3184 C   0  0  0  0  0  0  0  0  0  0  0  0
    5.8895   -0.1529   24.6846 C   0  0  0  0  0  0  0  0  0  0  0  0
    4.8139   -0.3703   25.6238 N   0  0  0  0  0  0  0  0  0  0  0  0
    4.0503   -1.4929   25.7186 C   0  0  0  0  0  0  0  0  0  0  0  0
    3.1508   -1.3923   26.6745 N   0  0  0  0  0  0  0  0  0  0  0  0
    3.2785   -0.1103   27.1815 C   0  0  0  0  0  0  0  0  0  0  0  0
    2.3654    0.4614   28.2171 C   0  0  0  0  0  0  0  0  0  0  0  0
    2.6037    1.5534   28.6447 O   0  0  0  0  0  0  0  0  0  0  0  0
    1.2740   -0.4346   28.4884 N   0  0  0  0  0  0  0  0  0  0  0  0
    0.0653   -0.2578   29.2939 C   0  0  0  0  0  0  0  0  0  0  0  0
   -0.1916   -1.3112   30.4143 C   0  0  0  0  0  0  0  0  0  0  0  0
   -1.4335   -1.0437   31.1740 N   0  0  0  0  0  0  0  0  0  0  0  0
   -2.4419   -1.9374   31.6784 C   0  0  0  0  0  0  0  0  0  0  0  0
   -2.5756   -3.1205   31.5444 O   0  0  0  0  0  0  0  0  0  0  0  0
   -3.4676   -1.2125   32.5086 C   0  0  0  0  0  0  0  0  0  0  0  0
   -4.6332   -1.7817   33.1148 C   0  0  0  0  0  0  0  0  0  0  0  0
   -5.2849   -0.7512   33.7449 C   0  0  0  0  0  0  0  0  0  0  0  0
   -4.5199    0.3500   33.5124 N   0  0  0  0  0  0  0  0  0  0  0  0
   -3.4225    0.1131   32.7610 N   0  0  0  0  0  0  0  0  0  0  0  0
    1.0237   -1.4814   31.3678 C   0  0  0  0  0  0  0  0  0  0  0  0
    1.3399   -0.2183   32.1738 C   0  0  0  0  0  0  0  0  0  0  0  0
    0.8426   -2.6703   32.3187 C   0  0  0  0  0  0  0  0  0  0  0  0
    4.3323    0.5272   26.5360 C   0  0  0  0  0  0  0  0  0  0  0  0
    8.0446   -0.1701   24.5759 H   0  0  0  0  0  0  0  0  0  0  0  0
    7.3746   -1.3451   25.7227 H   0  0  0  0  0  0  0  0  0  0  0  0
    7.4106    0.3733   26.1400 H   0  0  0  0  0  0  0  0  0  0  0  0
    5.7812    0.8619   24.2861 H   0  0  0  0  0  0  0  0  0  0  0  0
    5.7648   -0.8548   23.8528 H   0  0  0  0  0  0  0  0  0  0  0  0
    4.1718   -2.3484   25.0714 H   0  0  0  0  0  0  0  0  0  0  0  0
    1.3536   -1.2507   27.8763 H   0  0  0  0  0  0  0  0  0  0  0  0
    0.0933    0.7509   29.7208 H   0  0  0  0  0  0  0  0  0  0  0  0
   -0.7760   -0.2745   28.5910 H   0  0  0  0  0  0  0  0  0  0  0  0
   -0.3505   -2.2778   29.9176 H   0  0  0  0  0  0  0  0  0  0  0  0
   -1.5927   -0.1129   31.5593 H   0  0  0  0  0  0  0  0  0  0  0  0
   -4.9340   -2.8169   33.0767 H   0  0  0  0  0  0  0  0  0  0  0  0
   -6.1954   -0.7061   34.3244 H   0  0  0  0  0  0  0  0  0  0  0  0
   -4.6835    1.3001   33.8295 H   0  0  0  0  0  0  0  0  0  0  0  0
    1.9049   -1.7083   30.7536 H   0  0  0  0  0  0  0  0  0  0  0  0
    1.5675    0.6280   31.5193 H   0  0  0  0  0  0  0  0  0  0  0  0
    2.2164   -0.3796   32.8110 H   0  0  0  0  0  0  0  0  0  0  0  0
    0.5058    0.0662   32.8234 H   0  0  0  0  0  0  0  0  0  0  0  0
    1.7674   -2.8594   32.8748 H   0  0  0  0  0  0  0  0  0  0  0  0
    0.0499   -2.4898   33.0515 H   0  0  0  0  0  0  0  0  0  0  0  0
    0.5984   -3.5818   31.7633 H   0  0  0  0  0  0  0  0  0  0  0  0
    4.7337    1.5242   26.6477 H   0  0  0  0  0  0  0  0  0  0  0  0
  1  2  1  0
  2  3  1  0
  3  4  1  0
  4  5  2  0
  5  6  1  0
  6  7  1  0
  7  8  2  0
  7  9  1  0
  9 10  1  0
 10 11  1  0
 11 12  1  0
 12 13  1  0
 13 14  2  0
 13 15  1  0
 15 16  1  0
 16 17  2  0
 17 18  1  0
 18 19  1  0
 11 20  1  0
 20 21  1  0
 20 22  1  0
  6 23  2  0
 23  3  1  0
 19 15  2  0
  1 24  1  0
  1 25  1  0
  1 26  1  0
  2 27  1  0
  2 28  1  0
  4 29  1  0
  9 30  1  0
 10 31  1  0
 10 32  1  0
 11 33  1  0
 12 34  1  0
 16 35  1  0
 17 36  1  0
 18 37  1  0
 20 38  1  0
 21 39  1  0
 21 40  1  0
 21 41  1  0
 22 42  1  0
 22 43  1  0
 22 44  1  0
 23 45  1  0
M  END
>  <Energy>  (881) 
57.544594322356993

>  <compound_id>  (881) 
10622

>  <target_id>  (881) 
1

>  <reference_id>  (881) 
7

>  <inspiration_ids>  (881) 
[80, 7]

>  <energy_score>  (881) 
-50.148228148949585

>  <distance_score>  (881) 
11.683518009471836

>  <path>  (881) 
/opt/xchem-fragalysis-2/maxwin/BulkDock/SCRATCH/511020/C10622-P7/C10622-P7.minimised.mol

>  <scratch_subdir>  (881) 
/opt/xchem-fragalysis-2/maxwin/BulkDock/SCRATCH/511020/C10622-P7

>  <fragmenstein_runtime>  (881) 
20.316783905029297

>  <fragmenstein_outcome>  (881) 
too moved

>  <fragmenstein_mode>  (881) 
expansion

>  <fragmenstein_error>  (881) 


$$$$
C10623-P80
     RDKit          3D

 42 43  0  0  0  0  0  0  0  0999 V2000
    8.2419   -1.5428   26.8743 C   0  0  0  0  0  0  0  0  0  0  0  0
    7.0564   -0.9811   26.1883 C   0  0  0  0  0  0  0  0  0  0  0  0
    7.1034   -0.4835   24.9090 N   0  0  0  0  0  0  0  0  0  0  0  0
    5.8603   -0.0245   24.6009 C   0  0  0  0  0  0  0  0  0  0  0  0
    5.0175   -0.2063   25.5945 N   0  0  0  0  0  0  0  0  0  0  0  0
    5.7254   -0.8620   26.5925 C   0  0  0  0  0  0  0  0  0  0  0  0
    5.1020   -1.3473   27.8739 C   0  0  0  0  0  0  0  0  0  0  0  0
    5.8117   -1.8590   28.6927 O   0  0  0  0  0  0  0  0  0  0  0  0
    3.6847   -1.0855   27.8911 N   0  0  0  0  0  0  0  0  0  0  0  0
    2.6518   -1.4469   28.8678 C   0  0  0  0  0  0  0  0  0  0  0  0
    1.8744   -0.2827   29.5663 C   0  0  0  0  0  0  0  0  0  0  0  0
    0.6672   -0.7563   30.3010 N   0  0  0  0  0  0  0  0  0  0  0  0
   -0.6507   -0.1897   30.4137 C   0  0  0  0  0  0  0  0  0  0  0  0
   -1.1376    0.7653   29.8815 O   0  0  0  0  0  0  0  0  0  0  0  0
   -1.5028   -0.8777   31.4560 C   0  0  0  0  0  0  0  0  0  0  0  0
   -2.7818   -0.4163   31.9076 C   0  0  0  0  0  0  0  0  0  0  0  0
   -3.1959   -1.2885   32.8805 C   0  0  0  0  0  0  0  0  0  0  0  0
   -2.1864   -2.1983   32.9982 N   0  0  0  0  0  0  0  0  0  0  0  0
   -1.1548   -1.9866   32.1424 N   0  0  0  0  0  0  0  0  0  0  0  0
    2.7437    0.5755   30.5448 C   0  0  0  0  0  0  0  0  0  0  0  0
    3.9601    1.2265   29.8810 C   0  0  0  0  0  0  0  0  0  0  0  0
    1.9257    1.6950   31.2135 C   0  0  0  0  0  0  0  0  0  0  0  0
    8.4741   -0.9580   27.7701 H   0  0  0  0  0  0  0  0  0  0  0  0
    8.0665   -2.5792   27.1767 H   0  0  0  0  0  0  0  0  0  0  0  0
    9.1244   -1.5287   26.2265 H   0  0  0  0  0  0  0  0  0  0  0  0
    7.9151   -0.4515   24.3109 H   0  0  0  0  0  0  0  0  0  0  0  0
    5.6172    0.4276   23.6491 H   0  0  0  0  0  0  0  0  0  0  0  0
    3.4051   -0.7095   26.9822 H   0  0  0  0  0  0  0  0  0  0  0  0
    1.9369   -2.0747   28.3233 H   0  0  0  0  0  0  0  0  0  0  0  0
    3.1206   -2.0805   29.6294 H   0  0  0  0  0  0  0  0  0  0  0  0
    1.4961    0.3849   28.7809 H   0  0  0  0  0  0  0  0  0  0  0  0
    0.7564   -1.5230   30.9666 H   0  0  0  0  0  0  0  0  0  0  0  0
   -3.2990    0.4509   31.5333 H   0  0  0  0  0  0  0  0  0  0  0  0
   -4.0827   -1.3466   33.4944 H   0  0  0  0  0  0  0  0  0  0  0  0
   -2.1511   -2.9989   33.6314 H   0  0  0  0  0  0  0  0  0  0  0  0
    3.1083   -0.0788   31.3481 H   0  0  0  0  0  0  0  0  0  0  0  0
    4.4008    1.9968   30.5238 H   0  0  0  0  0  0  0  0  0  0  0  0
    3.6941    1.6979   28.9294 H   0  0  0  0  0  0  0  0  0  0  0  0
    4.7516    0.4962   29.7104 H   0  0  0  0  0  0  0  0  0  0  0  0
    2.5646    2.3293   31.8381 H   0  0  0  0  0  0  0  0  0  0  0  0
    1.1545    1.2907   31.8754 H   0  0  0  0  0  0  0  0  0  0  0  0
    1.4444    2.3341   30.4656 H   0  0  0  0  0  0  0  0  0  0  0  0
  1  2  1  0
  2  3  1  0
  3  4  1  0
  4  5  2  0
  5  6  1  0
  6  7  1  0
  7  8  2  0
  7  9  1  0
  9 10  1  0
 10 11  1  0
 11 12  1  0
 12 13  1  0
 13 14  2  0
 13 15  1  0
 15 16  1  0
 16 17  2  0
 17 18  1  0
 18 19  1  0
 11 20  1  0
 20 21  1  0
 20 22  1  0
  6  2  2  0
 19 15  2  0
  1 23  1  0
  1 24  1  0
  1 25  1  0
  3 26  1  0
  4 27  1  0
  9 28  1  0
 10 29  1  0
 10 30  1  0
 11 31  1  0
 12 32  1  0
 16 33  1  0
 17 34  1  0
 18 35  1  0
 20 36  1  0
 21 37  1  0
 21 38  1  0
 21 39  1  0
 22 40  1  0
 22 41  1  0
 22 42  1  0
M  END
>  <Energy>  (882) 
65.620503407802588

>  <compound_id>  (882) 
10623

>  <target_id>  (882) 
1

>  <reference_id>  (882) 
80

>  <inspiration_ids>  (882) 
[80, 7]

>  <energy_score>  (882) 
-36.2363480840618

>  <distance_score>  (882) 
11.474980273391749

>  <path>  (882) 
/opt/xchem-fragalysis-2/maxwin/BulkDock/SCRATCH/511020/C10623-P80/C10623-P80.minimised.mol

>  <scratch_subdir>  (882) 
/opt/xchem-fragalysis-2/maxwin/BulkDock/SCRATCH/511020/C10623-P80

>  <fragmenstein_runtime>  (882) 
15.29945707321167

>  <fragmenstein_outcome>  (882) 
too moved

>  <fragmenstein_mode>  (882) 
expansion

>  <fragmenstein_error>  (882) 


$$$$
C10623-P7
     RDKit          3D

 42 43  0  0  0  0  0  0  0  0999 V2000
    4.7524   -2.7968   23.3887 C   0  0  0  0  0  0  0  0  0  0  0  0
    5.7499   -1.7576   23.7433 C   0  0  0  0  0  0  0  0  0  0  0  0
    6.9036   -1.6113   23.0114 N   0  0  0  0  0  0  0  0  0  0  0  0
    7.5935   -0.5542   23.5162 C   0  0  0  0  0  0  0  0  0  0  0  0
    6.9475    0.0057   24.5108 N   0  0  0  0  0  0  0  0  0  0  0  0
    5.7721   -0.7361   24.6983 C   0  0  0  0  0  0  0  0  0  0  0  0
    4.7090   -0.3501   25.7128 C   0  0  0  0  0  0  0  0  0  0  0  0
    4.3811    0.8008   25.7606 O   0  0  0  0  0  0  0  0  0  0  0  0
    4.2149   -1.4974   26.4298 N   0  0  0  0  0  0  0  0  0  0  0  0
    3.0968   -1.6380   27.3668 C   0  0  0  0  0  0  0  0  0  0  0  0
    2.8218   -0.5310   28.4296 C   0  0  0  0  0  0  0  0  0  0  0  0
    1.4647   -0.6801   29.0366 N   0  0  0  0  0  0  0  0  0  0  0  0
    0.8806   -1.7582   29.7885 C   0  0  0  0  0  0  0  0  0  0  0  0
    1.3057   -2.8455   30.0528 O   0  0  0  0  0  0  0  0  0  0  0  0
   -0.4495   -1.3582   30.3961 C   0  0  0  0  0  0  0  0  0  0  0  0
   -1.2506   -2.1341   31.3001 C   0  0  0  0  0  0  0  0  0  0  0  0
   -2.3382   -1.3571   31.6221 C   0  0  0  0  0  0  0  0  0  0  0  0
   -2.1717   -0.2042   30.9193 N   0  0  0  0  0  0  0  0  0  0  0  0
   -1.0380   -0.1580   30.1905 N   0  0  0  0  0  0  0  0  0  0  0  0
    3.8749   -0.4847   29.5777 C   0  0  0  0  0  0  0  0  0  0  0  0
    5.3253   -0.3940   29.0995 C   0  0  0  0  0  0  0  0  0  0  0  0
    3.6025    0.6983   30.5215 C   0  0  0  0  0  0  0  0  0  0  0  0
    5.1976   -3.7944   23.4528 H   0  0  0  0  0  0  0  0  0  0  0  0
    3.8769   -2.7750   24.0406 H   0  0  0  0  0  0  0  0  0  0  0  0
    4.4074   -2.6567   22.3589 H   0  0  0  0  0  0  0  0  0  0  0  0
    7.1682   -2.1916   22.2302 H   0  0  0  0  0  0  0  0  0  0  0  0
    8.5510   -0.2299   23.1371 H   0  0  0  0  0  0  0  0  0  0  0  0
    4.6736   -2.3343   26.0731 H   0  0  0  0  0  0  0  0  0  0  0  0
    2.2077   -1.7286   26.7407 H   0  0  0  0  0  0  0  0  0  0  0  0
    3.2288   -2.6027   27.8675 H   0  0  0  0  0  0  0  0  0  0  0  0
    2.8012    0.4401   27.9210 H   0  0  0  0  0  0  0  0  0  0  0  0
    0.8492    0.1300   29.0864 H   0  0  0  0  0  0  0  0  0  0  0  0
   -1.0185   -3.1254   31.6674 H   0  0  0  0  0  0  0  0  0  0  0  0
   -3.1868   -1.5246   32.2695 H   0  0  0  0  0  0  0  0  0  0  0  0
   -2.7858    0.6018   30.8801 H   0  0  0  0  0  0  0  0  0  0  0  0
    3.7857   -1.4035   30.1723 H   0  0  0  0  0  0  0  0  0  0  0  0
    5.4729    0.4613   28.4331 H   0  0  0  0  0  0  0  0  0  0  0  0
    5.6350   -1.3069   28.5837 H   0  0  0  0  0  0  0  0  0  0  0  0
    6.0069   -0.2729   29.9491 H   0  0  0  0  0  0  0  0  0  0  0  0
    3.6506    1.6509   29.9829 H   0  0  0  0  0  0  0  0  0  0  0  0
    4.3415    0.7298   31.3297 H   0  0  0  0  0  0  0  0  0  0  0  0
    2.6172    0.6223   30.9916 H   0  0  0  0  0  0  0  0  0  0  0  0
  1  2  1  0
  2  3  1  0
  3  4  1  0
  4  5  2  0
  5  6  1  0
  6  7  1  0
  7  8  2  0
  7  9  1  0
  9 10  1  0
 10 11  1  0
 11 12  1  0
 12 13  1  0
 13 14  2  0
 13 15  1  0
 15 16  1  0
 16 17  2  0
 17 18  1  0
 18 19  1  0
 11 20  1  0
 20 21  1  0
 20 22  1  0
  6  2  2  0
 19 15  2  0
  1 23  1  0
  1 24  1  0
  1 25  1  0
  3 26  1  0
  4 27  1  0
  9 28  1  0
 10 29  1  0
 10 30  1  0
 11 31  1  0
 12 32  1  0
 16 33  1  0
 17 34  1  0
 18 35  1  0
 20 36  1  0
 21 37  1  0
 21 38  1  0
 21 39  1  0
 22 40  1  0
 22 41  1  0
 22 42  1  0
M  END
>  <Energy>  (883) 
75.500899779987677

>  <compound_id>  (883) 
10623

>  <target_id>  (883) 
1

>  <reference_id>  (883) 
7

>  <inspiration_ids>  (883) 
[80, 7]

>  <energy_score>  (883) 
-26.355951711876457

>  <distance_score>  (883) 
11.58580792244375

>  <path>  (883) 
/opt/xchem-fragalysis-2/maxwin/BulkDock/SCRATCH/511020/C10623-P7/C10623-P7.minimised.mol

>  <scratch_subdir>  (883) 
/opt/xchem-fragalysis-2/maxwin/BulkDock/SCRATCH/511020/C10623-P7

>  <fragmenstein_runtime>  (883) 
15.016876697540283

>  <fragmenstein_outcome>  (883) 
too moved

>  <fragmenstein_mode>  (883) 
expansion

>  <fragmenstein_error>  (883) 


$$$$
C10624-P80
     RDKit          3D

 48 49  0  0  0  0  0  0  0  0999 V2000
    1.4821    1.5696   28.3517 C   0  0  0  0  0  0  0  0  0  0  0  0
    0.8197    1.2760   29.7003 C   0  0  0  0  0  0  0  0  0  0  0  0
    1.5977    1.9550   30.8300 C   0  0  0  0  0  0  0  0  0  0  0  0
    0.5784   -0.2433   29.9497 C   0  0  0  0  0  0  0  0  0  0  0  0
    1.8677   -1.0745   30.2175 C   0  0  0  0  0  0  0  0  0  0  0  0
    2.8186   -1.1588   29.1146 N   0  0  0  0  0  0  0  0  0  0  0  0
    2.8508   -2.0129   27.9644 C   0  0  0  0  0  0  0  0  0  0  0  0
    2.1487   -2.9289   27.6543 O   0  0  0  0  0  0  0  0  0  0  0  0
    4.0254   -1.6692   27.0932 C   0  0  0  0  0  0  0  0  0  0  0  0
    4.2458   -2.0647   25.7827 C   0  0  0  0  0  0  0  0  0  0  0  0
    5.4707   -1.5698   25.4180 N   0  0  0  0  0  0  0  0  0  0  0  0
    6.0814   -1.7250   24.1062 C   0  0  0  0  0  0  0  0  0  0  0  0
    7.4434   -1.0403   23.9670 C   0  0  0  0  0  0  0  0  0  0  0  0
    6.2181   -3.1989   23.7073 C   0  0  0  0  0  0  0  0  0  0  0  0
    5.9479   -0.8772   26.4931 C   0  0  0  0  0  0  0  0  0  0  0  0
    5.1063   -0.8952   27.5082 N   0  0  0  0  0  0  0  0  0  0  0  0
   -0.4661   -0.3963   30.9974 N   0  0  0  0  0  0  0  0  0  0  0  0
   -1.8583   -0.0076   31.0096 C   0  0  0  0  0  0  0  0  0  0  0  0
   -2.5406    0.4639   30.1510 O   0  0  0  0  0  0  0  0  0  0  0  0
   -2.5738   -0.2789   32.3298 C   0  0  0  0  0  0  0  0  0  0  0  0
   -2.2888   -1.2285   33.3532 C   0  0  0  0  0  0  0  0  0  0  0  0
   -3.3004   -1.1160   34.2816 C   0  0  0  0  0  0  0  0  0  0  0  0
   -4.1290   -0.1523   33.8124 N   0  0  0  0  0  0  0  0  0  0  0  0
   -3.7130    0.3883   32.6587 N   0  0  0  0  0  0  0  0  0  0  0  0
    2.5455    1.3179   28.3465 H   0  0  0  0  0  0  0  0  0  0  0  0
    1.4070    2.6382   28.1202 H   0  0  0  0  0  0  0  0  0  0  0  0
    0.9883    1.0223   27.5424 H   0  0  0  0  0  0  0  0  0  0  0  0
   -0.1636    1.7633   29.6580 H   0  0  0  0  0  0  0  0  0  0  0  0
    1.6198    3.0400   30.6791 H   0  0  0  0  0  0  0  0  0  0  0  0
    1.1307    1.7667   31.8019 H   0  0  0  0  0  0  0  0  0  0  0  0
    2.6352    1.6092   30.8737 H   0  0  0  0  0  0  0  0  0  0  0  0
    0.1047   -0.6447   29.0436 H   0  0  0  0  0  0  0  0  0  0  0  0
    1.5670   -2.1051   30.4417 H   0  0  0  0  0  0  0  0  0  0  0  0
    2.4054   -0.7010   31.0943 H   0  0  0  0  0  0  0  0  0  0  0  0
    3.6257   -0.5358   29.0873 H   0  0  0  0  0  0  0  0  0  0  0  0
    3.6269   -2.6333   25.1026 H   0  0  0  0  0  0  0  0  0  0  0  0
    5.3957   -1.2382   23.4073 H   0  0  0  0  0  0  0  0  0  0  0  0
    7.4715   -0.0406   24.4057 H   0  0  0  0  0  0  0  0  0  0  0  0
    8.2388   -1.6259   24.4408 H   0  0  0  0  0  0  0  0  0  0  0  0
    7.6751   -0.9166   22.9077 H   0  0  0  0  0  0  0  0  0  0  0  0
    5.2446   -3.6990   23.6731 H   0  0  0  0  0  0  0  0  0  0  0  0
    6.6680   -3.2916   22.7128 H   0  0  0  0  0  0  0  0  0  0  0  0
    6.8463   -3.7457   24.4194 H   0  0  0  0  0  0  0  0  0  0  0  0
    6.9036   -0.3718   26.5080 H   0  0  0  0  0  0  0  0  0  0  0  0
   -0.2392   -0.8372   31.8777 H   0  0  0  0  0  0  0  0  0  0  0  0
   -1.4753   -1.9385   33.3988 H   0  0  0  0  0  0  0  0  0  0  0  0
   -3.4960   -1.6467   35.2029 H   0  0  0  0  0  0  0  0  0  0  0  0
   -4.9862    0.1968   34.2289 H   0  0  0  0  0  0  0  0  0  0  0  0
  1  2  1  0
  2  3  1  0
  2  4  1  0
  4  5  1  0
  5  6  1  0
  6  7  1  0
  7  8  2  0
  7  9  1  0
  9 10  2  0
 10 11  1  0
 11 12  1  0
 12 13  1  0
 12 14  1  0
 11 15  1  0
 15 16  2  0
  4 17  1  0
 17 18  1  0
 18 19  2  0
 18 20  1  0
 20 21  1  0
 21 22  2  0
 22 23  1  0
 23 24  1  0
 16  9  1  0
 24 20  2  0
  1 25  1  0
  1 26  1  0
  1 27  1  0
  2 28  1  0
  3 29  1  0
  3 30  1  0
  3 31  1  0
  4 32  1  0
  5 33  1  0
  5 34  1  0
  6 35  1  0
 10 36  1  0
 12 37  1  0
 13 38  1  0
 13 39  1  0
 13 40  1  0
 14 41  1  0
 14 42  1  0
 14 43  1  0
 15 44  1  0
 17 45  1  0
 21 46  1  0
 22 47  1  0
 23 48  1  0
M  END
>  <Energy>  (884) 
84.242719090103733

>  <compound_id>  (884) 
10624

>  <target_id>  (884) 
1

>  <reference_id>  (884) 
80

>  <inspiration_ids>  (884) 
[80, 7]

>  <energy_score>  (884) 
-29.918211616339647

>  <distance_score>  (884) 
11.691510943939647

>  <path>  (884) 
/opt/xchem-fragalysis-2/maxwin/BulkDock/SCRATCH/511020/C10624-P80/C10624-P80.minimised.mol

>  <scratch_subdir>  (884) 
/opt/xchem-fragalysis-2/maxwin/BulkDock/SCRATCH/511020/C10624-P80

>  <fragmenstein_runtime>  (884) 
26.464244604110718

>  <fragmenstein_outcome>  (884) 
too moved

>  <fragmenstein_mode>  (884) 
expansion

>  <fragmenstein_error>  (884) 


$$$$
C10624-P7
     RDKit          3D

 48 49  0  0  0  0  0  0  0  0999 V2000
    3.8953    2.5110   28.3812 C   0  0  0  0  0  0  0  0  0  0  0  0
    3.4321    2.3741   26.9259 C   0  0  0  0  0  0  0  0  0  0  0  0
    3.5320    0.9099   26.5003 C   0  0  0  0  0  0  0  0  0  0  0  0
    2.0286    2.9842   26.6910 C   0  0  0  0  0  0  0  0  0  0  0  0
    1.6135    3.1177   25.1920 C   0  0  0  0  0  0  0  0  0  0  0  0
    2.5498    3.4154   24.1089 N   0  0  0  0  0  0  0  0  0  0  0  0
    2.3178    3.8412   22.7515 C   0  0  0  0  0  0  0  0  0  0  0  0
    1.3028    4.1359   22.1895 O   0  0  0  0  0  0  0  0  0  0  0  0
    3.5720    3.9116   21.9187 C   0  0  0  0  0  0  0  0  0  0  0  0
    3.6054    3.8847   20.5277 C   0  0  0  0  0  0  0  0  0  0  0  0
    4.9024    4.0975   20.1522 N   0  0  0  0  0  0  0  0  0  0  0  0
    5.4321    4.2895   18.8031 C   0  0  0  0  0  0  0  0  0  0  0  0
    4.3627    4.3177   17.7037 C   0  0  0  0  0  0  0  0  0  0  0  0
    6.2701    5.5711   18.6984 C   0  0  0  0  0  0  0  0  0  0  0  0
    5.6335    4.1601   21.3073 C   0  0  0  0  0  0  0  0  0  0  0  0
    4.8719    4.0841   22.3821 N   0  0  0  0  0  0  0  0  0  0  0  0
    0.9856    2.2513   27.4628 N   0  0  0  0  0  0  0  0  0  0  0  0
    0.5791    2.3600   28.8383 C   0  0  0  0  0  0  0  0  0  0  0  0
    0.9205    3.1223   29.6954 O   0  0  0  0  0  0  0  0  0  0  0  0
   -0.4193    1.2909   29.2099 C   0  0  0  0  0  0  0  0  0  0  0  0
   -0.8761    0.9616   30.5305 C   0  0  0  0  0  0  0  0  0  0  0  0
   -1.8039   -0.0398   30.3781 C   0  0  0  0  0  0  0  0  0  0  0  0
   -1.8358   -0.2968   29.0406 N   0  0  0  0  0  0  0  0  0  0  0  0
   -1.0314    0.4977   28.3051 N   0  0  0  0  0  0  0  0  0  0  0  0
    4.9534    2.2403   28.4703 H   0  0  0  0  0  0  0  0  0  0  0  0
    3.7883    3.5422   28.7329 H   0  0  0  0  0  0  0  0  0  0  0  0
    3.3347    1.8539   29.0528 H   0  0  0  0  0  0  0  0  0  0  0  0
    4.1442    2.9575   26.3322 H   0  0  0  0  0  0  0  0  0  0  0  0
    4.5461    0.5278   26.6604 H   0  0  0  0  0  0  0  0  0  0  0  0
    3.3045    0.7968   25.4393 H   0  0  0  0  0  0  0  0  0  0  0  0
    2.8466    0.2729   27.0688 H   0  0  0  0  0  0  0  0  0  0  0  0
    2.0484    3.9991   27.1098 H   0  0  0  0  0  0  0  0  0  0  0  0
    0.8218    3.8755   25.1246 H   0  0  0  0  0  0  0  0  0  0  0  0
    1.1181    2.1990   24.8872 H   0  0  0  0  0  0  0  0  0  0  0  0
    3.5341    3.1676   24.2151 H   0  0  0  0  0  0  0  0  0  0  0  0
    2.7889    3.7829   19.8254 H   0  0  0  0  0  0  0  0  0  0  0  0
    6.0892    3.4294   18.6287 H   0  0  0  0  0  0  0  0  0  0  0  0
    4.8277    4.3940   16.7148 H   0  0  0  0  0  0  0  0  0  0  0  0
    3.7500    3.4119   17.7077 H   0  0  0  0  0  0  0  0  0  0  0  0
    3.6899    5.1743   17.8252 H   0  0  0  0  0  0  0  0  0  0  0  0
    7.1353    5.5441   19.3689 H   0  0  0  0  0  0  0  0  0  0  0  0
    6.6545    5.7039   17.6813 H   0  0  0  0  0  0  0  0  0  0  0  0
    5.6757    6.4548   18.9570 H   0  0  0  0  0  0  0  0  0  0  0  0
    6.7056    4.2972   21.3199 H   0  0  0  0  0  0  0  0  0  0  0  0
    0.5469    1.4292   27.0519 H   0  0  0  0  0  0  0  0  0  0  0  0
   -0.5525    1.4256   31.4525 H   0  0  0  0  0  0  0  0  0  0  0  0
   -2.4013   -0.5954   31.0853 H   0  0  0  0  0  0  0  0  0  0  0  0
   -2.3685   -1.0078   28.5492 H   0  0  0  0  0  0  0  0  0  0  0  0
  1  2  1  0
  2  3  1  0
  2  4  1  0
  4  5  1  0
  5  6  1  0
  6  7  1  0
  7  8  2  0
  7  9  1  0
  9 10  2  0
 10 11  1  0
 11 12  1  0
 12 13  1  0
 12 14  1  0
 11 15  1  0
 15 16  2  0
  4 17  1  0
 17 18  1  0
 18 19  2  0
 18 20  1  0
 20 21  1  0
 21 22  2  0
 22 23  1  0
 23 24  1  0
 16  9  1  0
 24 20  2  0
  1 25  1  0
  1 26  1  0
  1 27  1  0
  2 28  1  0
  3 29  1  0
  3 30  1  0
  3 31  1  0
  4 32  1  0
  5 33  1  0
  5 34  1  0
  6 35  1  0
 10 36  1  0
 12 37  1  0
 13 38  1  0
 13 39  1  0
 13 40  1  0
 14 41  1  0
 14 42  1  0
 14 43  1  0
 15 44  1  0
 17 45  1  0
 21 46  1  0
 22 47  1  0
 23 48  1  0
M  END
>  <Energy>  (885) 
74.332822989822915

>  <compound_id>  (885) 
10624

>  <target_id>  (885) 
1

>  <reference_id>  (885) 
7

>  <inspiration_ids>  (885) 
[80, 7]

>  <energy_score>  (885) 
-39.82810771662179

>  <distance_score>  (885) 
12.547358155351686

>  <path>  (885) 
/opt/xchem-fragalysis-2/maxwin/BulkDock/SCRATCH/511020/C10624-P7/C10624-P7.minimised.mol

>  <scratch_subdir>  (885) 
/opt/xchem-fragalysis-2/maxwin/BulkDock/SCRATCH/511020/C10624-P7

>  <fragmenstein_runtime>  (885) 
23.846998691558838

>  <fragmenstein_outcome>  (885) 
too moved

>  <fragmenstein_mode>  (885) 
expansion

>  <fragmenstein_error>  (885) 


$$$$
C10625-P80
     RDKit          3D

 45 46  0  0  0  0  0  0  0  0999 V2000
   -0.0957   -5.6688   21.9527 C   0  0  0  0  0  0  0  0  0  0  0  0
   -1.2322   -5.9451   22.9102 C   0  0  0  0  0  0  0  0  0  0  0  0
   -0.8148   -6.5005   24.2401 C   0  0  0  0  0  0  0  0  0  0  0  0
   -0.9845   -5.9306   25.4309 N   0  0  0  0  0  0  0  0  0  0  0  0
   -0.6551   -6.8489   26.4106 C   0  0  0  0  0  0  0  0  0  0  0  0
   -0.5841   -6.6129   27.9164 C   0  0  0  0  0  0  0  0  0  0  0  0
   -0.6403   -7.6018   28.5835 O   0  0  0  0  0  0  0  0  0  0  0  0
   -0.3647   -5.2371   28.2932 N   0  0  0  0  0  0  0  0  0  0  0  0
   -0.0447   -4.6342   29.5980 C   0  0  0  0  0  0  0  0  0  0  0  0
   -0.2561   -3.1118   29.9200 C   0  0  0  0  0  0  0  0  0  0  0  0
   -1.4204   -2.7879   30.7649 N   0  0  0  0  0  0  0  0  0  0  0  0
   -1.5174   -2.0344   31.9945 C   0  0  0  0  0  0  0  0  0  0  0  0
   -0.6659   -1.5490   32.6808 O   0  0  0  0  0  0  0  0  0  0  0  0
   -2.9429   -1.8633   32.4567 C   0  0  0  0  0  0  0  0  0  0  0  0
   -3.3949   -1.0566   33.5516 C   0  0  0  0  0  0  0  0  0  0  0  0
   -4.7549   -1.2360   33.6326 C   0  0  0  0  0  0  0  0  0  0  0  0
   -5.0599   -2.1122   32.6400 N   0  0  0  0  0  0  0  0  0  0  0  0
   -3.9953   -2.4990   31.8961 N   0  0  0  0  0  0  0  0  0  0  0  0
   -0.0937   -2.1595   28.7146 C   0  0  0  0  0  0  0  0  0  0  0  0
    1.3387   -2.2295   28.1673 C   0  0  0  0  0  0  0  0  0  0  0  0
   -0.4104   -0.6972   29.0551 C   0  0  0  0  0  0  0  0  0  0  0  0
   -0.3977   -8.0510   25.7562 C   0  0  0  0  0  0  0  0  0  0  0  0
   -0.4139   -7.7979   24.4057 N   0  0  0  0  0  0  0  0  0  0  0  0
   -0.4767   -5.1876   21.0458 H   0  0  0  0  0  0  0  0  0  0  0  0
    0.3870   -6.6011   21.6473 H   0  0  0  0  0  0  0  0  0  0  0  0
    0.6524   -5.0055   22.3923 H   0  0  0  0  0  0  0  0  0  0  0  0
   -1.7956   -5.0193   23.0737 H   0  0  0  0  0  0  0  0  0  0  0  0
   -1.9253   -6.6430   22.4259 H   0  0  0  0  0  0  0  0  0  0  0  0
   -0.2967   -4.6735   27.4563 H   0  0  0  0  0  0  0  0  0  0  0  0
   -0.5100   -5.2535   30.3732 H   0  0  0  0  0  0  0  0  0  0  0  0
    1.0313   -4.8275   29.7021 H   0  0  0  0  0  0  0  0  0  0  0  0
    0.5740   -2.8717   30.6017 H   0  0  0  0  0  0  0  0  0  0  0  0
   -2.3522   -2.9705   30.4161 H   0  0  0  0  0  0  0  0  0  0  0  0
   -2.7740   -0.4459   34.1929 H   0  0  0  0  0  0  0  0  0  0  0  0
   -5.5044   -0.8358   34.2990 H   0  0  0  0  0  0  0  0  0  0  0  0
   -5.9759   -2.4693   32.3890 H   0  0  0  0  0  0  0  0  0  0  0  0
   -0.7971   -2.4618   27.9346 H   0  0  0  0  0  0  0  0  0  0  0  0
    2.0684   -1.9637   28.9403 H   0  0  0  0  0  0  0  0  0  0  0  0
    1.4767   -1.5318   27.3361 H   0  0  0  0  0  0  0  0  0  0  0  0
    1.5880   -3.2306   27.8056 H   0  0  0  0  0  0  0  0  0  0  0  0
    0.2109   -0.3370   29.8819 H   0  0  0  0  0  0  0  0  0  0  0  0
   -0.2291   -0.0499   28.1898 H   0  0  0  0  0  0  0  0  0  0  0  0
   -1.4622   -0.5716   29.3318 H   0  0  0  0  0  0  0  0  0  0  0  0
   -0.1330   -9.0250   26.1426 H   0  0  0  0  0  0  0  0  0  0  0  0
   -0.2893   -8.4799   23.6718 H   0  0  0  0  0  0  0  0  0  0  0  0
  1  2  1  0
  2  3  1  0
  3  4  2  0
  4  5  1  0
  5  6  1  0
  6  7  2  0
  6  8  1  0
  8  9  1  0
  9 10  1  0
 10 11  1  0
 11 12  1  0
 12 13  2  0
 12 14  1  0
 14 15  1  0
 15 16  2  0
 16 17  1  0
 17 18  1  0
 10 19  1  0
 19 20  1  0
 19 21  1  0
  5 22  2  0
 22 23  1  0
 23  3  1  0
 18 14  2  0
  1 24  1  0
  1 25  1  0
  1 26  1  0
  2 27  1  0
  2 28  1  0
  8 29  1  0
  9 30  1  0
  9 31  1  0
 10 32  1  0
 11 33  1  0
 15 34  1  0
 16 35  1  0
 17 36  1  0
 19 37  1  0
 20 38  1  0
 20 39  1  0
 20 40  1  0
 21 41  1  0
 21 42  1  0
 21 43  1  0
 22 44  1  0
 23 45  1  0
M  END
>  <Energy>  (886) 
73.954649961893168

>  <compound_id>  (886) 
10625

>  <target_id>  (886) 
1

>  <reference_id>  (886) 
80

>  <inspiration_ids>  (886) 
[80, 7]

>  <energy_score>  (886) 
-27.939664421696563

>  <distance_score>  (886) 
13.409358231081129

>  <path>  (886) 
/opt/xchem-fragalysis-2/maxwin/BulkDock/SCRATCH/511020/C10625-P80/C10625-P80.minimised.mol

>  <scratch_subdir>  (886) 
/opt/xchem-fragalysis-2/maxwin/BulkDock/SCRATCH/511020/C10625-P80

>  <fragmenstein_runtime>  (886) 
15.668329000473022

>  <fragmenstein_outcome>  (886) 
too moved

>  <fragmenstein_mode>  (886) 
expansion

>  <fragmenstein_error>  (886) 


$$$$
C10625-P7
     RDKit          3D

 45 46  0  0  0  0  0  0  0  0999 V2000
   10.1978   -0.1975   15.4188 C   0  0  0  0  0  0  0  0  0  0  0  0
    8.9078   -0.7318   16.0138 C   0  0  0  0  0  0  0  0  0  0  0  0
    9.1567   -1.7995   17.0623 C   0  0  0  0  0  0  0  0  0  0  0  0
    8.5715   -1.9978   18.8972 N   0  0  0  0  0  0  0  0  0  0  0  0
    8.9497   -3.9512   19.5299 C   0  0  0  0  0  0  0  0  0  0  0  0
    8.7693   -4.2875   21.1519 C   0  0  0  0  0  0  0  0  0  0  0  0
    9.4098   -5.1972   21.6075 O   0  0  0  0  0  0  0  0  0  0  0  0
    7.8504   -3.2839   21.8400 N   0  0  0  0  0  0  0  0  0  0  0  0
    7.5418   -3.0622   23.3210 C   0  0  0  0  0  0  0  0  0  0  0  0
    6.8633   -1.6350   23.8512 C   0  0  0  0  0  0  0  0  0  0  0  0
    5.7940   -1.6673   24.9176 N   0  0  0  0  0  0  0  0  0  0  0  0
    5.2920   -0.6185   25.7995 C   0  0  0  0  0  0  0  0  0  0  0  0
    5.6586    0.5143   25.9531 O   0  0  0  0  0  0  0  0  0  0  0  0
    4.0496   -1.0017   26.6244 C   0  0  0  0  0  0  0  0  0  0  0  0
    3.3093   -0.1129   27.4984 C   0  0  0  0  0  0  0  0  0  0  0  0
    2.2224   -0.8151   27.9667 C   0  0  0  0  0  0  0  0  0  0  0  0
    2.3206   -2.0326   27.3703 N   0  0  0  0  0  0  0  0  0  0  0  0
    3.4473   -2.2085   26.6432 N   0  0  0  0  0  0  0  0  0  0  0  0
    6.4423   -0.5009   22.8567 C   0  0  0  0  0  0  0  0  0  0  0  0
    7.4787    0.6240   22.8202 C   0  0  0  0  0  0  0  0  0  0  0  0
    5.9394   -0.8798   21.4716 C   0  0  0  0  0  0  0  0  0  0  0  0
   10.3765   -4.5286   18.0672 C   0  0  0  0  0  0  0  0  0  0  0  0
   10.6245   -3.0216   16.9068 N   0  0  0  0  0  0  0  0  0  0  0  0
   10.8428    0.2358   16.1892 H   0  0  0  0  0  0  0  0  0  0  0  0
    9.9812    0.5813   14.6813 H   0  0  0  0  0  0  0  0  0  0  0  0
   10.7639   -0.9874   14.9150 H   0  0  0  0  0  0  0  0  0  0  0  0
    8.3501    0.0898   16.4719 H   0  0  0  0  0  0  0  0  0  0  0  0
    8.2898   -1.1726   15.2253 H   0  0  0  0  0  0  0  0  0  0  0  0
    7.4082   -2.7071   21.1444 H   0  0  0  0  0  0  0  0  0  0  0  0
    6.9877   -3.9194   23.6640 H   0  0  0  0  0  0  0  0  0  0  0  0
    8.5021   -3.1716   23.8438 H   0  0  0  0  0  0  0  0  0  0  0  0
    7.6940   -1.2097   24.4342 H   0  0  0  0  0  0  0  0  0  0  0  0
    5.2921   -2.5351   25.1136 H   0  0  0  0  0  0  0  0  0  0  0  0
    3.5601    0.9192   27.7006 H   0  0  0  0  0  0  0  0  0  0  0  0
    1.3945   -0.5492   28.6061 H   0  0  0  0  0  0  0  0  0  0  0  0
    1.6490   -2.7911   27.3851 H   0  0  0  0  0  0  0  0  0  0  0  0
    5.5724    0.0009   23.2958 H   0  0  0  0  0  0  0  0  0  0  0  0
    7.4995    1.1530   23.7799 H   0  0  0  0  0  0  0  0  0  0  0  0
    7.2369    1.3605   22.0481 H   0  0  0  0  0  0  0  0  0  0  0  0
    8.4850    0.2438   22.6524 H   0  0  0  0  0  0  0  0  0  0  0  0
    5.2474   -0.1102   21.1076 H   0  0  0  0  0  0  0  0  0  0  0  0
    5.3852   -1.8216   21.4833 H   0  0  0  0  0  0  0  0  0  0  0  0
    6.7382   -0.9156   20.7312 H   0  0  0  0  0  0  0  0  0  0  0  0
   11.4304   -4.8101   18.2294 H   0  0  0  0  0  0  0  0  0  0  0  0
   10.8448   -3.2844   15.9574 H   0  0  0  0  0  0  0  0  0  0  0  0
  1  2  1  0
  2  3  1  0
  3  4  2  0
  4  5  1  0
  5  6  1  0
  6  7  2  0
  6  8  1  0
  8  9  1  0
  9 10  1  0
 10 11  1  0
 11 12  1  0
 12 13  2  0
 12 14  1  0
 14 15  1  0
 15 16  2  0
 16 17  1  0
 17 18  1  0
 10 19  1  0
 19 20  1  0
 19 21  1  0
  5 22  2  0
 22 23  1  0
 23  3  1  0
 18 14  2  0
  1 24  1  0
  1 25  1  0
  1 26  1  0
  2 27  1  0
  2 28  1  0
  8 29  1  0
  9 30  1  0
  9 31  1  0
 10 32  1  0
 11 33  1  0
 15 34  1  0
 16 35  1  0
 17 36  1  0
 19 37  1  0
 20 38  1  0
 20 39  1  0
 20 40  1  0
 21 41  1  0
 21 42  1  0
 21 43  1  0
 22 44  1  0
 23 45  1  0
M  END
>  <Energy>  (887) 
782.63331038893557

>  <compound_id>  (887) 
10625

>  <target_id>  (887) 
1

>  <reference_id>  (887) 
7

>  <inspiration_ids>  (887) 
[80, 7]

>  <energy_score>  (887) 
680.7389960053476

>  <distance_score>  (887) 
13.453438073137963

>  <path>  (887) 
/opt/xchem-fragalysis-2/maxwin/BulkDock/SCRATCH/511020/C10625-P7/C10625-P7.minimised.mol

>  <scratch_subdir>  (887) 
/opt/xchem-fragalysis-2/maxwin/BulkDock/SCRATCH/511020/C10625-P7

>  <fragmenstein_runtime>  (887) 
11.659210205078125

>  <fragmenstein_outcome>  (887) 
too moved

>  <fragmenstein_mode>  (887) 
expansion

>  <fragmenstein_error>  (887) 


$$$$
C10626-P80
     RDKit          3D

 42 43  0  0  0  0  0  0  0  0999 V2000
    5.0309    1.6292   25.3944 C   0  0  0  0  0  0  0  0  0  0  0  0
    4.3905    0.3983   25.9084 C   0  0  0  0  0  0  0  0  0  0  0  0
    3.5084    0.3107   26.8910 N   0  0  0  0  0  0  0  0  0  0  0  0
    3.1557   -1.0377   26.9805 C   0  0  0  0  0  0  0  0  0  0  0  0
    2.1103   -1.5958   27.8995 C   0  0  0  0  0  0  0  0  0  0  0  0
    2.0823   -2.7744   28.1064 O   0  0  0  0  0  0  0  0  0  0  0  0
    1.2268   -0.5487   28.3277 N   0  0  0  0  0  0  0  0  0  0  0  0
   -0.0329   -0.5996   29.0658 C   0  0  0  0  0  0  0  0  0  0  0  0
    0.0241   -1.0810   30.5471 C   0  0  0  0  0  0  0  0  0  0  0  0
   -1.2936   -0.9891   31.2229 N   0  0  0  0  0  0  0  0  0  0  0  0
   -2.2009   -2.0186   31.6717 C   0  0  0  0  0  0  0  0  0  0  0  0
   -2.1571   -3.2071   31.5419 O   0  0  0  0  0  0  0  0  0  0  0  0
   -3.3881   -1.4647   32.4430 C   0  0  0  0  0  0  0  0  0  0  0  0
   -3.4952   -0.2881   33.2491 C   0  0  0  0  0  0  0  0  0  0  0  0
   -4.7734   -0.2879   33.7646 C   0  0  0  0  0  0  0  0  0  0  0  0
   -5.3630   -1.4170   33.2852 N   0  0  0  0  0  0  0  0  0  0  0  0
   -4.5709   -2.1246   32.4683 N   0  0  0  0  0  0  0  0  0  0  0  0
    1.1152   -0.3554   31.3794 C   0  0  0  0  0  0  0  0  0  0  0  0
    1.2468   -0.9648   32.7802 C   0  0  0  0  0  0  0  0  0  0  0  0
    0.8929    1.1562   31.4899 C   0  0  0  0  0  0  0  0  0  0  0  0
    3.8543   -1.7385   26.0157 C   0  0  0  0  0  0  0  0  0  0  0  0
    4.6202   -0.8307   25.3451 N   0  0  0  0  0  0  0  0  0  0  0  0
    4.5646    1.9404   24.4549 H   0  0  0  0  0  0  0  0  0  0  0  0
    4.9244    2.4459   26.1150 H   0  0  0  0  0  0  0  0  0  0  0  0
    6.0993    1.4705   25.2180 H   0  0  0  0  0  0  0  0  0  0  0  0
    1.5143    0.3259   27.8914 H   0  0  0  0  0  0  0  0  0  0  0  0
   -0.6965   -1.2709   28.5076 H   0  0  0  0  0  0  0  0  0  0  0  0
   -0.4749    0.4013   29.0095 H   0  0  0  0  0  0  0  0  0  0  0  0
    0.2769   -2.1493   30.5263 H   0  0  0  0  0  0  0  0  0  0  0  0
   -1.6884   -0.0858   31.4381 H   0  0  0  0  0  0  0  0  0  0  0  0
   -2.7163    0.4295   33.4642 H   0  0  0  0  0  0  0  0  0  0  0  0
   -5.2890    0.3781   34.4415 H   0  0  0  0  0  0  0  0  0  0  0  0
   -6.3038   -1.7599   33.4529 H   0  0  0  0  0  0  0  0  0  0  0  0
    2.0804   -0.5086   30.8795 H   0  0  0  0  0  0  0  0  0  0  0  0
    1.4156   -2.0452   32.7204 H   0  0  0  0  0  0  0  0  0  0  0  0
    2.0973   -0.5249   33.3123 H   0  0  0  0  0  0  0  0  0  0  0  0
    0.3510   -0.7912   33.3854 H   0  0  0  0  0  0  0  0  0  0  0  0
   -0.0455    1.3933   32.0012 H   0  0  0  0  0  0  0  0  0  0  0  0
    0.8751    1.6315   30.5047 H   0  0  0  0  0  0  0  0  0  0  0  0
    1.7055    1.6214   32.0589 H   0  0  0  0  0  0  0  0  0  0  0  0
    3.7990   -2.7695   25.7096 H   0  0  0  0  0  0  0  0  0  0  0  0
    5.1430   -1.0093   24.5001 H   0  0  0  0  0  0  0  0  0  0  0  0
  1  2  1  0
  2  3  2  0
  3  4  1  0
  4  5  1  0
  5  6  2  0
  5  7  1  0
  7  8  1  0
  8  9  1  0
  9 10  1  0
 10 11  1  0
 11 12  2  0
 11 13  1  0
 13 14  1  0
 14 15  2  0
 15 16  1  0
 16 17  1  0
  9 18  1  0
 18 19  1  0
 18 20  1  0
  4 21  2  0
 21 22  1  0
 22  2  1  0
 17 13  2  0
  1 23  1  0
  1 24  1  0
  1 25  1  0
  7 26  1  0
  8 27  1  0
  8 28  1  0
  9 29  1  0
 10 30  1  0
 14 31  1  0
 15 32  1  0
 16 33  1  0
 18 34  1  0
 19 35  1  0
 19 36  1  0
 19 37  1  0
 20 38  1  0
 20 39  1  0
 20 40  1  0
 21 41  1  0
 22 42  1  0
M  END
>  <Energy>  (888) 
76.100435813164808

>  <compound_id>  (888) 
10626

>  <target_id>  (888) 
1

>  <reference_id>  (888) 
80

>  <inspiration_ids>  (888) 
[80, 7]

>  <energy_score>  (888) 
-32.43186493518641

>  <distance_score>  (888) 
11.45731916399517

>  <path>  (888) 
/opt/xchem-fragalysis-2/maxwin/BulkDock/SCRATCH/511020/C10626-P80/C10626-P80.minimised.mol

>  <scratch_subdir>  (888) 
/opt/xchem-fragalysis-2/maxwin/BulkDock/SCRATCH/511020/C10626-P80

>  <fragmenstein_runtime>  (888) 
12.706924676895142

>  <fragmenstein_outcome>  (888) 
too moved

>  <fragmenstein_mode>  (888) 
expansion

>  <fragmenstein_error>  (888) 


$$$$
C10626-P7
     RDKit          3D

 42 43  0  0  0  0  0  0  0  0999 V2000
    5.6570    1.4838   23.5011 C   0  0  0  0  0  0  0  0  0  0  0  0
    5.7847    0.5400   24.6339 C   0  0  0  0  0  0  0  0  0  0  0  0
    4.8862    0.3050   25.5732 N   0  0  0  0  0  0  0  0  0  0  0  0
    5.4404   -0.6388   26.4281 C   0  0  0  0  0  0  0  0  0  0  0  0
    4.7527   -1.2120   27.6355 C   0  0  0  0  0  0  0  0  0  0  0  0
    5.4209   -1.7946   28.4410 O   0  0  0  0  0  0  0  0  0  0  0  0
    3.3395   -0.9409   27.6085 N   0  0  0  0  0  0  0  0  0  0  0  0
    2.2621   -1.3716   28.5018 C   0  0  0  0  0  0  0  0  0  0  0  0
    1.4173   -0.2531   29.1861 C   0  0  0  0  0  0  0  0  0  0  0  0
    0.3039   -0.7583   30.0378 N   0  0  0  0  0  0  0  0  0  0  0  0
   -0.9673   -0.1740   30.3714 C   0  0  0  0  0  0  0  0  0  0  0  0
   -1.4889    0.8318   29.9864 O   0  0  0  0  0  0  0  0  0  0  0  0
   -1.7228   -0.9389   31.4323 C   0  0  0  0  0  0  0  0  0  0  0  0
   -2.9276   -0.4879   32.0667 C   0  0  0  0  0  0  0  0  0  0  0  0
   -3.2709   -1.4410   32.9880 C   0  0  0  0  0  0  0  0  0  0  0  0
   -2.2862   -2.3800   32.9090 N   0  0  0  0  0  0  0  0  0  0  0  0
   -1.3621   -2.1330   31.9472 N   0  0  0  0  0  0  0  0  0  0  0  0
    2.2253    0.7762   30.0301 C   0  0  0  0  0  0  0  0  0  0  0  0
    3.1369    0.1177   31.0682 C   0  0  0  0  0  0  0  0  0  0  0  0
    3.0176    1.7706   29.1780 C   0  0  0  0  0  0  0  0  0  0  0  0
    6.7234   -0.9299   25.9839 C   0  0  0  0  0  0  0  0  0  0  0  0
    6.9097   -0.2144   24.8365 N   0  0  0  0  0  0  0  0  0  0  0  0
    4.7134    2.0348   23.5599 H   0  0  0  0  0  0  0  0  0  0  0  0
    5.6853    0.9485   22.5471 H   0  0  0  0  0  0  0  0  0  0  0  0
    6.4740    2.2121   23.5132 H   0  0  0  0  0  0  0  0  0  0  0  0
    3.1050   -0.4900   26.7227 H   0  0  0  0  0  0  0  0  0  0  0  0
    1.5962   -1.9973   27.8965 H   0  0  0  0  0  0  0  0  0  0  0  0
    2.7004   -2.0284   29.2614 H   0  0  0  0  0  0  0  0  0  0  0  0
    0.9154    0.3111   28.3886 H   0  0  0  0  0  0  0  0  0  0  0  0
    0.3829   -1.6640   30.4968 H   0  0  0  0  0  0  0  0  0  0  0  0
   -3.4464    0.4284   31.8522 H   0  0  0  0  0  0  0  0  0  0  0  0
   -4.0825   -1.5290   33.6955 H   0  0  0  0  0  0  0  0  0  0  0  0
   -2.2010   -3.2258   33.4743 H   0  0  0  0  0  0  0  0  0  0  0  0
    1.4978    1.3819   30.5894 H   0  0  0  0  0  0  0  0  0  0  0  0
    3.9579   -0.4323   30.5990 H   0  0  0  0  0  0  0  0  0  0  0  0
    3.5812    0.8761   31.7221 H   0  0  0  0  0  0  0  0  0  0  0  0
    2.5769   -0.5773   31.7019 H   0  0  0  0  0  0  0  0  0  0  0  0
    2.3958    2.1904   28.3808 H   0  0  0  0  0  0  0  0  0  0  0  0
    3.9048    1.3214   28.7268 H   0  0  0  0  0  0  0  0  0  0  0  0
    3.3644    2.6046   29.7987 H   0  0  0  0  0  0  0  0  0  0  0  0
    7.4704   -1.6013   26.3814 H   0  0  0  0  0  0  0  0  0  0  0  0
    7.7420   -0.2041   24.2670 H   0  0  0  0  0  0  0  0  0  0  0  0
  1  2  1  0
  2  3  2  0
  3  4  1  0
  4  5  1  0
  5  6  2  0
  5  7  1  0
  7  8  1  0
  8  9  1  0
  9 10  1  0
 10 11  1  0
 11 12  2  0
 11 13  1  0
 13 14  1  0
 14 15  2  0
 15 16  1  0
 16 17  1  0
  9 18  1  0
 18 19  1  0
 18 20  1  0
  4 21  2  0
 21 22  1  0
 22  2  1  0
 17 13  2  0
  1 23  1  0
  1 24  1  0
  1 25  1  0
  7 26  1  0
  8 27  1  0
  8 28  1  0
  9 29  1  0
 10 30  1  0
 14 31  1  0
 15 32  1  0
 16 33  1  0
 18 34  1  0
 19 35  1  0
 19 36  1  0
 19 37  1  0
 20 38  1  0
 20 39  1  0
 20 40  1  0
 21 41  1  0
 22 42  1  0
M  END
>  <Energy>  (889) 
64.325804645260376

>  <compound_id>  (889) 
10626

>  <target_id>  (889) 
1

>  <reference_id>  (889) 
7

>  <inspiration_ids>  (889) 
[80, 7]

>  <energy_score>  (889) 
-44.20649610309016

>  <distance_score>  (889) 
11.432314832487743

>  <path>  (889) 
/opt/xchem-fragalysis-2/maxwin/BulkDock/SCRATCH/511020/C10626-P7/C10626-P7.minimised.mol

>  <scratch_subdir>  (889) 
/opt/xchem-fragalysis-2/maxwin/BulkDock/SCRATCH/511020/C10626-P7

>  <fragmenstein_runtime>  (889) 
21.031157970428467

>  <fragmenstein_outcome>  (889) 
too moved

>  <fragmenstein_mode>  (889) 
expansion

>  <fragmenstein_error>  (889) 


$$$$
C10627-P80
     RDKit          3D

 48 49  0  0  0  0  0  0  0  0999 V2000
   10.2625   -2.1197   24.2060 C   0  0  0  0  0  0  0  0  0  0  0  0
    8.8117   -2.6750   24.0056 C   0  0  0  0  0  0  0  0  0  0  0  0
    8.0889   -1.9427   25.1284 C   0  0  0  0  0  0  0  0  0  0  0  0
    8.1387   -3.1205   22.2294 C   0  0  0  0  0  0  0  0  0  0  0  0
    6.9666   -1.8587   22.0411 C   0  0  0  0  0  0  0  0  0  0  0  0
    6.6499   -0.5713   23.0893 C   0  0  0  0  0  0  0  0  0  0  0  0
    5.7981   -0.4226   24.4595 N   0  0  0  0  0  0  0  0  0  0  0  0
    5.0465   -1.4991   23.8641 C   0  0  0  0  0  0  0  0  0  0  0  0
    4.8931    0.6378   24.9099 C   0  0  0  0  0  0  0  0  0  0  0  0
    4.4895    1.6201   24.3330 O   0  0  0  0  0  0  0  0  0  0  0  0
    4.2587    0.4239   26.3078 C   0  0  0  0  0  0  0  0  0  0  0  0
    3.2473    1.2872   26.8923 C   0  0  0  0  0  0  0  0  0  0  0  0
    2.6996    0.6097   27.9579 C   0  0  0  0  0  0  0  0  0  0  0  0
    3.3640   -0.5763   27.9915 N   0  0  0  0  0  0  0  0  0  0  0  0
    4.3382   -0.6952   27.0640 N   0  0  0  0  0  0  0  0  0  0  0  0
    9.5564   -3.5160   20.8003 N   0  0  0  0  0  0  0  0  0  0  0  0
   11.5417   -3.6303   20.9249 C   0  0  0  0  0  0  0  0  0  0  0  0
   12.1030   -3.3584   21.9606 O   0  0  0  0  0  0  0  0  0  0  0  0
   12.6200   -4.1801   19.8532 C   0  0  0  0  0  0  0  0  0  0  0  0
   13.6840   -4.9344   20.3613 C   0  0  0  0  0  0  0  0  0  0  0  0
   14.6810   -5.1615   19.4619 N   0  0  0  0  0  0  0  0  0  0  0  0
   14.3161   -4.4916   18.4076 C   0  0  0  0  0  0  0  0  0  0  0  0
   13.0558   -3.9533   18.5371 N   0  0  0  0  0  0  0  0  0  0  0  0
   12.4838   -3.3462   17.3614 C   0  0  0  0  0  0  0  0  0  0  0  0
   10.5258   -2.0830   25.2722 H   0  0  0  0  0  0  0  0  0  0  0  0
   11.0203   -2.7673   23.7845 H   0  0  0  0  0  0  0  0  0  0  0  0
   10.3533   -1.0917   23.8445 H   0  0  0  0  0  0  0  0  0  0  0  0
    8.8899   -3.6462   24.4679 H   0  0  0  0  0  0  0  0  0  0  0  0
    7.0664   -2.2165   25.2376 H   0  0  0  0  0  0  0  0  0  0  0  0
    8.2204   -0.8592   25.0947 H   0  0  0  0  0  0  0  0  0  0  0  0
    8.5228   -2.2321   26.0983 H   0  0  0  0  0  0  0  0  0  0  0  0
    7.6439   -4.0510   22.4918 H   0  0  0  0  0  0  0  0  0  0  0  0
    7.1874   -1.2791   21.1394 H   0  0  0  0  0  0  0  0  0  0  0  0
    6.0442   -2.3587   21.7452 H   0  0  0  0  0  0  0  0  0  0  0  0
    6.1556    0.1727   22.4369 H   0  0  0  0  0  0  0  0  0  0  0  0
    7.6090   -0.0805   23.2963 H   0  0  0  0  0  0  0  0  0  0  0  0
    4.1484   -1.6903   24.4687 H   0  0  0  0  0  0  0  0  0  0  0  0
    5.6433   -2.3639   24.0809 H   0  0  0  0  0  0  0  0  0  0  0  0
    4.7273   -1.4651   22.8221 H   0  0  0  0  0  0  0  0  0  0  0  0
    2.9341    2.2423   26.4943 H   0  0  0  0  0  0  0  0  0  0  0  0
    1.9030    0.8452   28.6472 H   0  0  0  0  0  0  0  0  0  0  0  0
    3.2191   -1.3573   28.6210 H   0  0  0  0  0  0  0  0  0  0  0  0
    9.2685   -3.8542   19.9342 H   0  0  0  0  0  0  0  0  0  0  0  0
   13.7777   -5.2842   21.3830 H   0  0  0  0  0  0  0  0  0  0  0  0
   14.9068   -4.3940   17.5040 H   0  0  0  0  0  0  0  0  0  0  0  0
   12.3029   -2.2899   17.5273 H   0  0  0  0  0  0  0  0  0  0  0  0
   13.1929   -3.4086   16.5279 H   0  0  0  0  0  0  0  0  0  0  0  0
   11.6047   -3.9104   17.0531 H   0  0  0  0  0  0  0  0  0  0  0  0
  1  2  1  0
  2  3  1  0
  2  4  1  0
  4  5  1  0
  5  6  1  0
  6  7  1  0
  7  8  1  0
  7  9  1  0
  9 10  2  0
  9 11  1  0
 11 12  1  0
 12 13  2  0
 13 14  1  0
 14 15  1  0
  4 16  1  0
 16 17  1  0
 17 18  2  0
 17 19  1  0
 19 20  2  0
 20 21  1  0
 21 22  2  0
 22 23  1  0
 23 24  1  0
 15 11  2  0
 23 19  1  0
  1 25  1  0
  1 26  1  0
  1 27  1  0
  2 28  1  0
  3 29  1  0
  3 30  1  0
  3 31  1  0
  4 32  1  0
  5 33  1  0
  5 34  1  0
  6 35  1  0
  6 36  1  0
  8 37  1  0
  8 38  1  0
  8 39  1  0
 12 40  1  0
 13 41  1  0
 14 42  1  0
 16 43  1  0
 20 44  1  0
 22 45  1  0
 24 46  1  0
 24 47  1  0
 24 48  1  0
M  END
>  <Energy>  (890) 
465.75260300981893

>  <compound_id>  (890) 
10627

>  <target_id>  (890) 
1

>  <reference_id>  (890) 
80

>  <inspiration_ids>  (890) 
[80, 7]

>  <energy_score>  (890) 
416.2959174738113

>  <distance_score>  (890) 
13.874533878547416

>  <path>  (890) 
/opt/xchem-fragalysis-2/maxwin/BulkDock/SCRATCH/511020/C10627-P80/C10627-P80.minimised.mol

>  <scratch_subdir>  (890) 
/opt/xchem-fragalysis-2/maxwin/BulkDock/SCRATCH/511020/C10627-P80

>  <fragmenstein_runtime>  (890) 
17.651793241500854

>  <fragmenstein_outcome>  (890) 
too moved

>  <fragmenstein_mode>  (890) 
expansion

>  <fragmenstein_error>  (890) 


$$$$
C10627-P7
     RDKit          3D

 48 49  0  0  0  0  0  0  0  0999 V2000
    5.9774    2.0373   28.1239 C   0  0  0  0  0  0  0  0  0  0  0  0
    4.4549    1.8267   28.1544 C   0  0  0  0  0  0  0  0  0  0  0  0
    3.9542    2.3371   29.5153 C   0  0  0  0  0  0  0  0  0  0  0  0
    4.0404    0.3355   27.8486 C   0  0  0  0  0  0  0  0  0  0  0  0
    2.5003    0.1441   28.0299 C   0  0  0  0  0  0  0  0  0  0  0  0
    1.9953   -1.3119   28.2463 C   0  0  0  0  0  0  0  0  0  0  0  0
    0.8297   -1.3232   29.3005 N   0  0  0  0  0  0  0  0  0  0  0  0
    0.6800   -2.7309   28.7971 C   0  0  0  0  0  0  0  0  0  0  0  0
   -0.4520   -0.6541   29.2971 C   0  0  0  0  0  0  0  0  0  0  0  0
   -0.9843    0.0083   28.4439 O   0  0  0  0  0  0  0  0  0  0  0  0
   -1.2185   -0.8784   30.6071 C   0  0  0  0  0  0  0  0  0  0  0  0
   -0.9020   -1.7303   31.7125 C   0  0  0  0  0  0  0  0  0  0  0  0
   -1.9543   -1.6469   32.5961 C   0  0  0  0  0  0  0  0  0  0  0  0
   -2.8135   -0.7549   32.0472 N   0  0  0  0  0  0  0  0  0  0  0  0
   -2.3997   -0.2617   30.8694 N   0  0  0  0  0  0  0  0  0  0  0  0
    4.5936   -0.0426   26.5289 N   0  0  0  0  0  0  0  0  0  0  0  0
    5.9102   -0.5071   26.1519 C   0  0  0  0  0  0  0  0  0  0  0  0
    6.8620   -0.7795   26.8234 O   0  0  0  0  0  0  0  0  0  0  0  0
    6.1267   -0.5535   24.6946 C   0  0  0  0  0  0  0  0  0  0  0  0
    6.8254   -1.5113   23.9664 C   0  0  0  0  0  0  0  0  0  0  0  0
    6.9818   -1.1692   22.6422 N   0  0  0  0  0  0  0  0  0  0  0  0
    6.3989    0.0005   22.5423 C   0  0  0  0  0  0  0  0  0  0  0  0
    5.9183    0.4346   23.7516 N   0  0  0  0  0  0  0  0  0  0  0  0
    5.3873    1.7540   23.9902 C   0  0  0  0  0  0  0  0  0  0  0  0
    6.3830    1.9137   27.1177 H   0  0  0  0  0  0  0  0  0  0  0  0
    6.4870    1.3399   28.7969 H   0  0  0  0  0  0  0  0  0  0  0  0
    6.2405    3.0552   28.4332 H   0  0  0  0  0  0  0  0  0  0  0  0
    4.0217    2.4702   27.3765 H   0  0  0  0  0  0  0  0  0  0  0  0
    4.1813    1.6228   30.3137 H   0  0  0  0  0  0  0  0  0  0  0  0
    2.8767    2.5244   29.5059 H   0  0  0  0  0  0  0  0  0  0  0  0
    4.4209    3.2935   29.7771 H   0  0  0  0  0  0  0  0  0  0  0  0
    4.5569   -0.2974   28.5817 H   0  0  0  0  0  0  0  0  0  0  0  0
    1.9698    0.5946   27.1835 H   0  0  0  0  0  0  0  0  0  0  0  0
    2.1740    0.6973   28.9129 H   0  0  0  0  0  0  0  0  0  0  0  0
    2.8404   -1.8907   28.6463 H   0  0  0  0  0  0  0  0  0  0  0  0
    1.7074   -1.6360   27.2365 H   0  0  0  0  0  0  0  0  0  0  0  0
    0.2258   -2.7874   27.8018 H   0  0  0  0  0  0  0  0  0  0  0  0
   -0.0827   -3.2000   29.4344 H   0  0  0  0  0  0  0  0  0  0  0  0
    1.5553   -3.3821   28.9359 H   0  0  0  0  0  0  0  0  0  0  0  0
   -0.0207   -2.3466   31.8240 H   0  0  0  0  0  0  0  0  0  0  0  0
   -2.1470   -2.1297   33.5448 H   0  0  0  0  0  0  0  0  0  0  0  0
   -3.7006   -0.4346   32.4181 H   0  0  0  0  0  0  0  0  0  0  0  0
    4.0092    0.0069   25.6982 H   0  0  0  0  0  0  0  0  0  0  0  0
    7.2325   -2.4327   24.3600 H   0  0  0  0  0  0  0  0  0  0  0  0
    6.3006    0.5829   21.6370 H   0  0  0  0  0  0  0  0  0  0  0  0
    4.3492    1.6765   24.3164 H   0  0  0  0  0  0  0  0  0  0  0  0
    5.9963    2.2401   24.7557 H   0  0  0  0  0  0  0  0  0  0  0  0
    5.4338    2.3386   23.0674 H   0  0  0  0  0  0  0  0  0  0  0  0
  1  2  1  0
  2  3  1  0
  2  4  1  0
  4  5  1  0
  5  6  1  0
  6  7  1  0
  7  8  1  0
  7  9  1  0
  9 10  2  0
  9 11  1  0
 11 12  1  0
 12 13  2  0
 13 14  1  0
 14 15  1  0
  4 16  1  0
 16 17  1  0
 17 18  2  0
 17 19  1  0
 19 20  2  0
 20 21  1  0
 21 22  2  0
 22 23  1  0
 23 24  1  0
 15 11  2  0
 23 19  1  0
  1 25  1  0
  1 26  1  0
  1 27  1  0
  2 28  1  0
  3 29  1  0
  3 30  1  0
  3 31  1  0
  4 32  1  0
  5 33  1  0
  5 34  1  0
  6 35  1  0
  6 36  1  0
  8 37  1  0
  8 38  1  0
  8 39  1  0
 12 40  1  0
 13 41  1  0
 14 42  1  0
 16 43  1  0
 20 44  1  0
 22 45  1  0
 24 46  1  0
 24 47  1  0
 24 48  1  0
M  END
>  <Energy>  (891) 
104.67626495395342

>  <compound_id>  (891) 
10627

>  <target_id>  (891) 
1

>  <reference_id>  (891) 
7

>  <inspiration_ids>  (891) 
[80, 7]

>  <energy_score>  (891) 
55.21957941794278

>  <distance_score>  (891) 
11.138395989288314

>  <path>  (891) 
/opt/xchem-fragalysis-2/maxwin/BulkDock/SCRATCH/511020/C10627-P7/C10627-P7.minimised.mol

>  <scratch_subdir>  (891) 
/opt/xchem-fragalysis-2/maxwin/BulkDock/SCRATCH/511020/C10627-P7

>  <fragmenstein_runtime>  (891) 
22.51923966407776

>  <fragmenstein_outcome>  (891) 
too moved

>  <fragmenstein_mode>  (891) 
expansion

>  <fragmenstein_error>  (891) 


$$$$
C10628-P80
     RDKit          3D

 51 52  0  0  0  0  0  0  0  0999 V2000
    6.2219   -1.3020   22.3361 C   0  0  0  0  0  0  0  0  0  0  0  0
    6.3249   -1.3079   23.8577 C   0  0  0  0  0  0  0  0  0  0  0  0
    7.5127   -0.5699   24.3792 C   0  0  0  0  0  0  0  0  0  0  0  0
    8.5084   -0.2104   23.4714 N   0  0  0  0  0  0  0  0  0  0  0  0
    9.4854    0.2642   24.1984 C   0  0  0  0  0  0  0  0  0  0  0  0
    9.1518    0.2713   25.5187 N   0  0  0  0  0  0  0  0  0  0  0  0
    7.8548   -0.2042   25.6881 C   0  0  0  0  0  0  0  0  0  0  0  0
    7.2742   -0.3159   27.0592 C   0  0  0  0  0  0  0  0  0  0  0  0
    8.0793   -0.3825   27.9423 O   0  0  0  0  0  0  0  0  0  0  0  0
    5.8404   -0.3709   27.0948 N   0  0  0  0  0  0  0  0  0  0  0  0
    4.9012   -0.6264   28.2178 C   0  0  0  0  0  0  0  0  0  0  0  0
    5.0560    0.1959   29.5401 C   0  0  0  0  0  0  0  0  0  0  0  0
    4.1193    1.4134   29.8667 C   0  0  0  0  0  0  0  0  0  0  0  0
    2.6719    1.0329   30.3285 N   0  0  0  0  0  0  0  0  0  0  0  0
    2.4791    2.5191   30.2205 C   0  0  0  0  0  0  0  0  0  0  0  0
    2.1827    0.5605   31.6039 C   0  0  0  0  0  0  0  0  0  0  0  0
    2.7514    0.4264   32.6572 O   0  0  0  0  0  0  0  0  0  0  0  0
    0.6749    0.2866   31.6266 C   0  0  0  0  0  0  0  0  0  0  0  0
   -0.0905   -0.0903   32.7896 C   0  0  0  0  0  0  0  0  0  0  0  0
   -1.4001   -0.2070   32.3843 C   0  0  0  0  0  0  0  0  0  0  0  0
   -1.3840    0.0793   31.0548 N   0  0  0  0  0  0  0  0  0  0  0  0
   -0.1697    0.4204   30.5808 N   0  0  0  0  0  0  0  0  0  0  0  0
    3.4402   -0.6877   27.7418 C   0  0  0  0  0  0  0  0  0  0  0  0
    3.1508   -1.9925   27.0113 C   0  0  0  0  0  0  0  0  0  0  0  0
    3.0410    0.5084   26.8811 C   0  0  0  0  0  0  0  0  0  0  0  0
    7.0749   -1.8242   21.8943 H   0  0  0  0  0  0  0  0  0  0  0  0
    5.3098   -1.8060   22.0067 H   0  0  0  0  0  0  0  0  0  0  0  0
    6.2050   -0.2868   21.9284 H   0  0  0  0  0  0  0  0  0  0  0  0
    6.4261   -2.3383   24.1945 H   0  0  0  0  0  0  0  0  0  0  0  0
    5.3975   -0.9137   24.2732 H   0  0  0  0  0  0  0  0  0  0  0  0
   10.4504    0.5981   23.8393 H   0  0  0  0  0  0  0  0  0  0  0  0
    9.7471    0.5501   26.2868 H   0  0  0  0  0  0  0  0  0  0  0  0
    5.4873   -0.3664   26.1471 H   0  0  0  0  0  0  0  0  0  0  0  0
    5.1964   -1.6415   28.5212 H   0  0  0  0  0  0  0  0  0  0  0  0
    6.0910    0.5550   29.5952 H   0  0  0  0  0  0  0  0  0  0  0  0
    4.9367   -0.5106   30.3735 H   0  0  0  0  0  0  0  0  0  0  0  0
    4.1934    2.0647   28.9870 H   0  0  0  0  0  0  0  0  0  0  0  0
    4.6255    1.8816   30.7281 H   0  0  0  0  0  0  0  0  0  0  0  0
    1.4474    2.7179   30.5452 H   0  0  0  0  0  0  0  0  0  0  0  0
    2.4816    2.8907   29.1858 H   0  0  0  0  0  0  0  0  0  0  0  0
    3.0732    3.1206   30.9252 H   0  0  0  0  0  0  0  0  0  0  0  0
    0.3054   -0.2546   33.7829 H   0  0  0  0  0  0  0  0  0  0  0  0
   -2.3039   -0.4837   32.9070 H   0  0  0  0  0  0  0  0  0  0  0  0
   -2.1581    0.0730   30.3985 H   0  0  0  0  0  0  0  0  0  0  0  0
    2.7921   -0.7176   28.6226 H   0  0  0  0  0  0  0  0  0  0  0  0
    2.0744   -2.0900   26.8655 H   0  0  0  0  0  0  0  0  0  0  0  0
    3.4636   -2.8451   27.6178 H   0  0  0  0  0  0  0  0  0  0  0  0
    3.6531   -2.0497   26.0412 H   0  0  0  0  0  0  0  0  0  0  0  0
    1.9602    0.6629   26.9476 H   0  0  0  0  0  0  0  0  0  0  0  0
    3.3161    0.3545   25.8334 H   0  0  0  0  0  0  0  0  0  0  0  0
    3.5121    1.4418   27.1871 H   0  0  0  0  0  0  0  0  0  0  0  0
  1  2  1  0
  2  3  1  0
  3  4  1  0
  4  5  2  0
  5  6  1  0
  6  7  1  0
  7  8  1  0
  8  9  2  0
  8 10  1  0
 10 11  1  0
 11 12  1  0
 12 13  1  0
 13 14  1  0
 14 15  1  0
 14 16  1  0
 16 17  2  0
 16 18  1  0
 18 19  1  0
 19 20  2  0
 20 21  1  0
 21 22  1  0
 11 23  1  0
 23 24  1  0
 23 25  1  0
  7  3  2  0
 22 18  2  0
  1 26  1  0
  1 27  1  0
  1 28  1  0
  2 29  1  0
  2 30  1  0
  5 31  1  0
  6 32  1  0
 10 33  1  0
 11 34  1  0
 12 35  1  0
 12 36  1  0
 13 37  1  0
 13 38  1  0
 15 39  1  0
 15 40  1  0
 15 41  1  0
 19 42  1  0
 20 43  1  0
 21 44  1  0
 23 45  1  0
 24 46  1  0
 24 47  1  0
 24 48  1  0
 25 49  1  0
 25 50  1  0
 25 51  1  0
M  END
>  <Energy>  (892) 
97.442198888794053

>  <compound_id>  (892) 
10628

>  <target_id>  (892) 
1

>  <reference_id>  (892) 
80

>  <inspiration_ids>  (892) 
[80, 7]

>  <energy_score>  (892) 
52.56010333924354

>  <distance_score>  (892) 
11.711051671448757

>  <path>  (892) 
/opt/xchem-fragalysis-2/maxwin/BulkDock/SCRATCH/511020/C10628-P80/C10628-P80.minimised.mol

>  <scratch_subdir>  (892) 
/opt/xchem-fragalysis-2/maxwin/BulkDock/SCRATCH/511020/C10628-P80

>  <fragmenstein_runtime>  (892) 
23.778770923614502

>  <fragmenstein_outcome>  (892) 
too moved

>  <fragmenstein_mode>  (892) 
expansion

>  <fragmenstein_error>  (892) 


$$$$
C10628-P7
     RDKit          3D

 51 52  0  0  0  0  0  0  0  0999 V2000
    6.1142    2.6682   19.4382 C   0  0  0  0  0  0  0  0  0  0  0  0
    6.1178    1.9059   20.7579 C   0  0  0  0  0  0  0  0  0  0  0  0
    5.8769    0.4427   20.6167 C   0  0  0  0  0  0  0  0  0  0  0  0
    5.4141   -0.0442   19.4154 N   0  0  0  0  0  0  0  0  0  0  0  0
    5.0135   -1.2567   19.6875 C   0  0  0  0  0  0  0  0  0  0  0  0
    5.3385   -1.6221   20.9631 N   0  0  0  0  0  0  0  0  0  0  0  0
    5.9152   -0.5557   21.5947 C   0  0  0  0  0  0  0  0  0  0  0  0
    6.4072   -0.5086   22.9744 C   0  0  0  0  0  0  0  0  0  0  0  0
    7.5058   -0.0553   23.1258 O   0  0  0  0  0  0  0  0  0  0  0  0
    5.4268   -0.9385   23.9390 N   0  0  0  0  0  0  0  0  0  0  0  0
    5.4200   -0.8657   25.4185 C   0  0  0  0  0  0  0  0  0  0  0  0
    4.0947   -1.4900   26.0233 C   0  0  0  0  0  0  0  0  0  0  0  0
    3.8731   -1.2581   27.5586 C   0  0  0  0  0  0  0  0  0  0  0  0
    2.4346   -1.3622   28.1357 N   0  0  0  0  0  0  0  0  0  0  0  0
    2.4255    0.0967   27.8022 C   0  0  0  0  0  0  0  0  0  0  0  0
    1.9751   -1.5638   29.4917 C   0  0  0  0  0  0  0  0  0  0  0  0
    2.5912   -1.6118   30.5261 O   0  0  0  0  0  0  0  0  0  0  0  0
    0.4636   -1.7047   29.6269 C   0  0  0  0  0  0  0  0  0  0  0  0
   -0.2748   -1.7437   30.8659 C   0  0  0  0  0  0  0  0  0  0  0  0
   -1.5953   -1.9391   30.5317 C   0  0  0  0  0  0  0  0  0  0  0  0
   -1.6043   -2.0321   29.1721 N   0  0  0  0  0  0  0  0  0  0  0  0
   -0.4055   -1.8145   28.6050 N   0  0  0  0  0  0  0  0  0  0  0  0
    6.7536   -1.1460   26.1831 C   0  0  0  0  0  0  0  0  0  0  0  0
    7.8533   -1.9015   25.4241 C   0  0  0  0  0  0  0  0  0  0  0  0
    7.3591    0.1618   26.7233 C   0  0  0  0  0  0  0  0  0  0  0  0
    6.8636    2.2774   18.7435 H   0  0  0  0  0  0  0  0  0  0  0  0
    5.1373    2.6006   18.9466 H   0  0  0  0  0  0  0  0  0  0  0  0
    6.3243    3.7283   19.6121 H   0  0  0  0  0  0  0  0  0  0  0  0
    7.0572    2.0743   21.2896 H   0  0  0  0  0  0  0  0  0  0  0  0
    5.3128    2.3262   21.3688 H   0  0  0  0  0  0  0  0  0  0  0  0
    4.5008   -1.9256   19.0109 H   0  0  0  0  0  0  0  0  0  0  0  0
    5.1604   -2.5251   21.3698 H   0  0  0  0  0  0  0  0  0  0  0  0
    4.5679   -1.1899   23.4506 H   0  0  0  0  0  0  0  0  0  0  0  0
    5.2240    0.1932   25.5945 H   0  0  0  0  0  0  0  0  0  0  0  0
    4.0320   -2.5573   25.7989 H   0  0  0  0  0  0  0  0  0  0  0  0
    3.2526   -1.0641   25.4715 H   0  0  0  0  0  0  0  0  0  0  0  0
    4.5003   -0.4569   27.9867 H   0  0  0  0  0  0  0  0  0  0  0  0
    4.3391   -2.1394   28.0283 H   0  0  0  0  0  0  0  0  0  0  0  0
    1.3830    0.4183   27.9433 H   0  0  0  0  0  0  0  0  0  0  0  0
    2.6386    0.3925   26.7695 H   0  0  0  0  0  0  0  0  0  0  0  0
    2.9748    0.7017   28.5411 H   0  0  0  0  0  0  0  0  0  0  0  0
    0.1469   -1.6619   31.8587 H   0  0  0  0  0  0  0  0  0  0  0  0
   -2.4898   -2.0501   31.1251 H   0  0  0  0  0  0  0  0  0  0  0  0
   -2.3768   -2.2558   28.5483 H   0  0  0  0  0  0  0  0  0  0  0  0
    6.5126   -1.7330   27.0764 H   0  0  0  0  0  0  0  0  0  0  0  0
    7.4591   -2.5988   24.6806 H   0  0  0  0  0  0  0  0  0  0  0  0
    8.5514   -1.2266   24.9212 H   0  0  0  0  0  0  0  0  0  0  0  0
    8.4564   -2.4812   26.1331 H   0  0  0  0  0  0  0  0  0  0  0  0
    7.6439    0.8359   25.9090 H   0  0  0  0  0  0  0  0  0  0  0  0
    6.6474    0.6876   27.3684 H   0  0  0  0  0  0  0  0  0  0  0  0
    8.2543   -0.0440   27.3203 H   0  0  0  0  0  0  0  0  0  0  0  0
  1  2  1  0
  2  3  1  0
  3  4  1  0
  4  5  2  0
  5  6  1  0
  6  7  1  0
  7  8  1  0
  8  9  2  0
  8 10  1  0
 10 11  1  0
 11 12  1  0
 12 13  1  0
 13 14  1  0
 14 15  1  0
 14 16  1  0
 16 17  2  0
 16 18  1  0
 18 19  1  0
 19 20  2  0
 20 21  1  0
 21 22  1  0
 11 23  1  0
 23 24  1  0
 23 25  1  0
  7  3  2  0
 22 18  2  0
  1 26  1  0
  1 27  1  0
  1 28  1  0
  2 29  1  0
  2 30  1  0
  5 31  1  0
  6 32  1  0
 10 33  1  0
 11 34  1  0
 12 35  1  0
 12 36  1  0
 13 37  1  0
 13 38  1  0
 15 39  1  0
 15 40  1  0
 15 41  1  0
 19 42  1  0
 20 43  1  0
 21 44  1  0
 23 45  1  0
 24 46  1  0
 24 47  1  0
 24 48  1  0
 25 49  1  0
 25 50  1  0
 25 51  1  0
M  END
>  <Energy>  (893) 
110.40763564250733

>  <compound_id>  (893) 
10628

>  <target_id>  (893) 
1

>  <reference_id>  (893) 
7

>  <inspiration_ids>  (893) 
[80, 7]

>  <energy_score>  (893) 
65.52554009296296

>  <distance_score>  (893) 
11.497043332577253

>  <path>  (893) 
/opt/xchem-fragalysis-2/maxwin/BulkDock/SCRATCH/511020/C10628-P7/C10628-P7.minimised.mol

>  <scratch_subdir>  (893) 
/opt/xchem-fragalysis-2/maxwin/BulkDock/SCRATCH/511020/C10628-P7

>  <fragmenstein_runtime>  (893) 
24.1092472076416

>  <fragmenstein_outcome>  (893) 
too moved

>  <fragmenstein_mode>  (893) 
expansion

>  <fragmenstein_error>  (893) 


$$$$
C49461-P101
     RDKit          3D

 23 25  0  0  0  0  0  0  0  0999 V2000
  -11.4481  -29.8809   19.4645 C   0  0  0  0  0  0  0  0  0  0  0  0
  -11.3133  -28.2314   19.7825 C   0  0  0  0  0  0  0  0  0  0  0  0
  -10.9878  -27.4635   21.5864 C   0  0  0  0  0  0  0  0  0  0  0  0
  -10.2042  -27.9822   22.9768 N   0  0  0  0  0  0  0  0  0  0  0  0
  -10.3524  -27.0660   24.5855 C   0  0  0  0  0  0  0  0  0  0  0  0
  -11.5904  -26.4891   24.3984 C   0  0  0  0  0  0  0  0  0  0  0  0
  -11.9129  -27.4340   23.1589 N   0  0  0  0  0  0  0  0  0  0  0  0
  -12.1071  -27.9648   18.0341 C   0  0  0  0  0  0  0  0  0  0  0  0
  -13.1830  -26.9910   17.5200 C   0  0  0  0  0  0  0  0  0  0  0  0
  -11.8053  -26.9914   16.9197 C   0  0  0  0  0  0  0  0  0  0  0  0
  -12.3184  -29.3390   17.3370 N   0  0  0  0  0  0  0  0  0  0  0  0
  -12.2712  -30.3977   18.2952 C   0  0  0  0  0  0  0  0  0  0  0  0
  -11.1972  -30.7153   20.1246 H   0  0  0  0  0  0  0  0  0  0  0  0
   -9.8031  -27.4842   25.4279 H   0  0  0  0  0  0  0  0  0  0  0  0
  -12.4114  -26.2631   25.0690 H   0  0  0  0  0  0  0  0  0  0  0  0
  -12.5520  -28.1870   23.2816 H   0  0  0  0  0  0  0  0  0  0  0  0
  -13.4802  -26.0619   17.9795 H   0  0  0  0  0  0  0  0  0  0  0  0
  -13.9929  -27.4023   16.9233 H   0  0  0  0  0  0  0  0  0  0  0  0
  -11.2377  -26.1102   17.0109 H   0  0  0  0  0  0  0  0  0  0  0  0
  -11.7246  -27.3568   15.8974 H   0  0  0  0  0  0  0  0  0  0  0  0
  -11.5458  -29.4796   16.6847 H   0  0  0  0  0  0  0  0  0  0  0  0
  -13.2821  -30.6443   18.6463 H   0  0  0  0  0  0  0  0  0  0  0  0
  -11.9193  -31.3325   17.8547 H   0  0  0  0  0  0  0  0  0  0  0  0
  1  2  2  0
  2  3  1  0
  3  4  2  0
  4  5  1  0
  5  6  2  0
  6  7  1  0
  2  8  1  0
  8  9  1  0
  9 10  1  0
  8 11  1  0
 11 12  1  0
 12  1  1  0
  7  3  1  0
 10  8  1  0
  1 13  1  0
  5 14  1  0
  6 15  1  0
  7 16  1  0
  9 17  1  0
  9 18  1  0
 10 19  1  0
 10 20  1  0
 11 21  1  0
 12 22  1  0
 12 23  1  0
M  END
>  <Energy>  (894) 
521.12806900592852

>  <compound_id>  (894) 
49461

>  <target_id>  (894) 
1

>  <reference_id>  (894) 
101

>  <inspiration_ids>  (894) 
[101, 9]

>  <energy_score>  (894) 
493.07452109817535

>  <distance_score>  (894) 
4.666726144967729

>  <path>  (894) 
/opt/xchem-fragalysis-2/maxwin/BulkDock/SCRATCH/511020/C49461-P101/C49461-P101.minimised.mol

>  <scratch_subdir>  (894) 
/opt/xchem-fragalysis-2/maxwin/BulkDock/SCRATCH/511020/C49461-P101

>  <fragmenstein_runtime>  (894) 
3.184196710586548

>  <fragmenstein_outcome>  (894) 
too moved

>  <fragmenstein_mode>  (894) 
expansion

>  <fragmenstein_error>  (894) 


$$$$
C49461-P9
     RDKit          3D

 23 25  0  0  0  0  0  0  0  0999 V2000
  -12.1579  -29.4824   19.5009 C   0  0  0  0  0  0  0  0  0  0  0  0
  -11.7930  -28.1927   19.9787 C   0  0  0  0  0  0  0  0  0  0  0  0
  -10.5349  -27.9403   21.5499 C   0  0  0  0  0  0  0  0  0  0  0  0
   -9.7590  -27.1734   22.6722 N   0  0  0  0  0  0  0  0  0  0  0  0
   -9.3702  -27.6711   24.4922 C   0  0  0  0  0  0  0  0  0  0  0  0
  -10.5710  -27.4328   25.0001 C   0  0  0  0  0  0  0  0  0  0  0  0
  -10.7870  -27.3644   23.3337 N   0  0  0  0  0  0  0  0  0  0  0  0
  -12.4974  -27.3167   18.7387 C   0  0  0  0  0  0  0  0  0  0  0  0
  -13.1988  -25.9994   18.6300 C   0  0  0  0  0  0  0  0  0  0  0  0
  -14.0819  -27.1159   18.9166 C   0  0  0  0  0  0  0  0  0  0  0  0
  -12.3757  -28.2169   17.5527 N   0  0  0  0  0  0  0  0  0  0  0  0
  -12.7920  -29.5061   18.1223 C   0  0  0  0  0  0  0  0  0  0  0  0
  -11.8892  -30.4277   19.9635 H   0  0  0  0  0  0  0  0  0  0  0  0
   -8.6615  -28.4934   24.5341 H   0  0  0  0  0  0  0  0  0  0  0  0
  -11.3869  -27.6698   25.6708 H   0  0  0  0  0  0  0  0  0  0  0  0
  -11.6192  -27.8164   23.4409 H   0  0  0  0  0  0  0  0  0  0  0  0
  -13.3203  -25.5610   17.6435 H   0  0  0  0  0  0  0  0  0  0  0  0
  -13.1440  -25.2756   19.4326 H   0  0  0  0  0  0  0  0  0  0  0  0
  -14.7621  -27.4080   18.1211 H   0  0  0  0  0  0  0  0  0  0  0  0
  -14.6028  -26.9979   19.8432 H   0  0  0  0  0  0  0  0  0  0  0  0
  -12.9902  -27.9444   16.7905 H   0  0  0  0  0  0  0  0  0  0  0  0
  -13.8796  -29.6065   18.2129 H   0  0  0  0  0  0  0  0  0  0  0  0
  -12.4570  -30.3349   17.4945 H   0  0  0  0  0  0  0  0  0  0  0  0
  1  2  2  0
  2  3  1  0
  3  4  2  0
  4  5  1  0
  5  6  2  0
  6  7  1  0
  2  8  1  0
  8  9  1  0
  9 10  1  0
  8 11  1  0
 11 12  1  0
 12  1  1  0
  7  3  1  0
 10  8  1  0
  1 13  1  0
  5 14  1  0
  6 15  1  0
  7 16  1  0
  9 17  1  0
  9 18  1  0
 10 19  1  0
 10 20  1  0
 11 21  1  0
 12 22  1  0
 12 23  1  0
M  END
>  <Energy>  (895) 
671.71391465394402

>  <compound_id>  (895) 
49461

>  <target_id>  (895) 
1

>  <reference_id>  (895) 
9

>  <inspiration_ids>  (895) 
[101, 9]

>  <energy_score>  (895) 
643.6603667461975

>  <distance_score>  (895) 
5.389804979458028

>  <path>  (895) 
/opt/xchem-fragalysis-2/maxwin/BulkDock/SCRATCH/511020/C49461-P9/C49461-P9.minimised.mol

>  <scratch_subdir>  (895) 
/opt/xchem-fragalysis-2/maxwin/BulkDock/SCRATCH/511020/C49461-P9

>  <fragmenstein_runtime>  (895) 
4.230655193328857

>  <fragmenstein_outcome>  (895) 
too moved

>  <fragmenstein_mode>  (895) 
expansion

>  <fragmenstein_error>  (895) 


$$$$
C49465-P101
     RDKit          3D

 51 52  0  0  0  0  0  0  0  0999 V2000
  -11.7335  -27.4813   27.1984 C   0  0  0  0  0  0  0  0  0  0  0  0
  -12.9230  -27.2071   26.4534 N   0  0  0  0  0  0  0  0  0  0  0  0
  -13.2210  -25.9331   26.0624 C   0  0  0  0  0  0  0  0  0  0  0  0
  -14.3901  -25.8849   25.4857 N   0  0  0  0  0  0  0  0  0  0  0  0
  -14.8588  -27.1737   25.5309 C   0  0  0  0  0  0  0  0  0  0  0  0
  -13.9491  -28.0661   26.0761 C   0  0  0  0  0  0  0  0  0  0  0  0
  -14.0297  -29.6030   26.2996 C   0  0  0  0  0  0  0  0  0  0  0  0
  -15.0257  -30.5409   25.2780 C   0  0  0  0  0  0  0  0  0  0  0  0
  -14.3531  -31.7536   24.3683 C   0  0  0  0  0  0  0  0  0  0  0  0
  -13.3735  -32.2758   24.7905 O   0  0  0  0  0  0  0  0  0  0  0  0
  -15.1235  -31.9558   22.9473 N   0  0  0  0  0  0  0  0  0  0  0  0
  -14.7362  -32.8120   21.7020 C   0  0  0  0  0  0  0  0  0  0  0  0
  -14.9930  -32.3275   20.0568 C   0  0  0  0  0  0  0  0  0  0  0  0
  -13.9122  -31.4167   19.1580 C   0  0  0  0  0  0  0  0  0  0  0  0
  -14.3295  -30.5826   17.7802 C   0  0  0  0  0  0  0  0  0  0  0  0
  -13.3266  -29.4100   17.2982 C   0  0  0  0  0  0  0  0  0  0  0  0
  -13.1775  -28.9163   15.8890 N   0  0  0  0  0  0  0  0  0  0  0  0
  -14.2230  -27.9390   15.4982 C   0  0  0  0  0  0  0  0  0  0  0  0
  -13.9332  -27.2058   14.1528 C   0  0  0  0  0  0  0  0  0  0  0  0
  -12.6501  -26.4798   14.1434 N   0  0  0  0  0  0  0  0  0  0  0  0
  -11.5896  -27.4528   14.4434 C   0  0  0  0  0  0  0  0  0  0  0  0
  -11.8463  -28.2365   15.7566 C   0  0  0  0  0  0  0  0  0  0  0  0
  -11.5989  -26.7294   27.9800 H   0  0  0  0  0  0  0  0  0  0  0  0
  -11.8456  -28.4646   27.6481 H   0  0  0  0  0  0  0  0  0  0  0  0
  -10.8991  -27.4123   26.4987 H   0  0  0  0  0  0  0  0  0  0  0  0
  -12.5695  -25.0855   26.2443 H   0  0  0  0  0  0  0  0  0  0  0  0
  -15.8414  -27.4085   25.1397 H   0  0  0  0  0  0  0  0  0  0  0  0
  -13.0425  -30.0649   26.3292 H   0  0  0  0  0  0  0  0  0  0  0  0
  -14.4588  -29.7292   27.3032 H   0  0  0  0  0  0  0  0  0  0  0  0
  -15.7329  -31.0583   25.9386 H   0  0  0  0  0  0  0  0  0  0  0  0
  -15.6038  -29.8799   24.6284 H   0  0  0  0  0  0  0  0  0  0  0  0
  -15.9786  -31.4114   22.9418 H   0  0  0  0  0  0  0  0  0  0  0  0
  -13.6738  -33.0532   21.8088 H   0  0  0  0  0  0  0  0  0  0  0  0
  -15.3146  -33.7337   21.8290 H   0  0  0  0  0  0  0  0  0  0  0  0
  -15.0409  -33.2820   19.5139 H   0  0  0  0  0  0  0  0  0  0  0  0
  -15.9991  -31.8980   19.9767 H   0  0  0  0  0  0  0  0  0  0  0  0
  -13.1435  -32.1320   18.8326 H   0  0  0  0  0  0  0  0  0  0  0  0
  -13.3869  -30.7717   19.8436 H   0  0  0  0  0  0  0  0  0  0  0  0
  -15.3307  -30.1613   17.9152 H   0  0  0  0  0  0  0  0  0  0  0  0
  -14.3942  -31.3267   16.9776 H   0  0  0  0  0  0  0  0  0  0  0  0
  -12.3399  -29.7662   17.6163 H   0  0  0  0  0  0  0  0  0  0  0  0
  -13.5855  -28.5184   17.8671 H   0  0  0  0  0  0  0  0  0  0  0  0
  -14.3403  -27.1740   16.2778 H   0  0  0  0  0  0  0  0  0  0  0  0
  -15.1810  -28.4643   15.4113 H   0  0  0  0  0  0  0  0  0  0  0  0
  -14.7379  -26.4862   13.9645 H   0  0  0  0  0  0  0  0  0  0  0  0
  -13.9564  -27.9258   13.3252 H   0  0  0  0  0  0  0  0  0  0  0  0
  -12.6702  -25.7981   14.8998 H   0  0  0  0  0  0  0  0  0  0  0  0
  -10.6334  -26.9230   14.5207 H   0  0  0  0  0  0  0  0  0  0  0  0
  -11.4946  -28.1564   13.6072 H   0  0  0  0  0  0  0  0  0  0  0  0
  -11.0729  -29.0080   15.8308 H   0  0  0  0  0  0  0  0  0  0  0  0
  -11.7124  -27.5364   16.5927 H   0  0  0  0  0  0  0  0  0  0  0  0
  1  2  1  0
  2  3  1  0
  3  4  2  0
  4  5  1  0
  5  6  2  0
  6  7  1  0
  7  8  1  0
  8  9  1  0
  9 10  2  0
  9 11  1  0
 11 12  1  0
 12 13  1  0
 13 14  1  0
 14 15  1  0
 15 16  1  0
 16 17  1  0
 17 18  1  0
 18 19  1  0
 19 20  1  0
 20 21  1  0
 21 22  1  0
  6  2  1  0
 22 17  1  0
  1 23  1  0
  1 24  1  0
  1 25  1  0
  3 26  1  0
  5 27  1  0
  7 28  1  0
  7 29  1  0
  8 30  1  0
  8 31  1  0
 11 32  1  0
 12 33  1  0
 12 34  1  0
 13 35  1  0
 13 36  1  0
 14 37  1  0
 14 38  1  0
 15 39  1  0
 15 40  1  0
 16 41  1  0
 16 42  1  0
 18 43  1  0
 18 44  1  0
 19 45  1  0
 19 46  1  0
 20 47  1  0
 21 48  1  0
 21 49  1  0
 22 50  1  0
 22 51  1  0
M  END
>  <Energy>  (896) 
151.44278725657762

>  <compound_id>  (896) 
49465

>  <target_id>  (896) 
1

>  <reference_id>  (896) 
101

>  <inspiration_ids>  (896) 
[101, 9]

>  <energy_score>  (896) 
61.025375448033174

>  <distance_score>  (896) 
3.637860433226506

>  <path>  (896) 
/opt/xchem-fragalysis-2/maxwin/BulkDock/SCRATCH/511020/C49465-P101/C49465-P101.minimised.mol

>  <scratch_subdir>  (896) 
/opt/xchem-fragalysis-2/maxwin/BulkDock/SCRATCH/511020/C49465-P101

>  <fragmenstein_runtime>  (896) 
5.644030332565308

>  <fragmenstein_outcome>  (896) 
too moved

>  <fragmenstein_mode>  (896) 
expansion

>  <fragmenstein_error>  (896) 


$$$$
C49465-P9
     RDKit          3D

 51 52  0  0  0  0  0  0  0  0999 V2000
  -13.7336  -26.1556   27.6722 C   0  0  0  0  0  0  0  0  0  0  0  0
  -12.8187  -25.1535   26.9458 N   0  0  0  0  0  0  0  0  0  0  0  0
  -12.4961  -23.8282   26.9568 C   0  0  0  0  0  0  0  0  0  0  0  0
  -11.2297  -23.6263   26.6749 N   0  0  0  0  0  0  0  0  0  0  0  0
  -10.7379  -24.8246   26.3143 C   0  0  0  0  0  0  0  0  0  0  0  0
  -11.7753  -25.6929   26.2998 C   0  0  0  0  0  0  0  0  0  0  0  0
  -12.2038  -26.9065   25.7630 C   0  0  0  0  0  0  0  0  0  0  0  0
  -13.8000  -26.4092   25.0623 C   0  0  0  0  0  0  0  0  0  0  0  0
  -14.0207  -27.7925   24.9666 C   0  0  0  0  0  0  0  0  0  0  0  0
  -14.4765  -28.5426   25.8181 O   0  0  0  0  0  0  0  0  0  0  0  0
  -13.3655  -28.1345   23.3981 N   0  0  0  0  0  0  0  0  0  0  0  0
  -13.0465  -30.1865   22.2996 C   0  0  0  0  0  0  0  0  0  0  0  0
  -12.5402  -30.7389   20.5672 C   0  0  0  0  0  0  0  0  0  0  0  0
  -13.5964  -30.9818   19.4264 C   0  0  0  0  0  0  0  0  0  0  0  0
  -13.4764  -30.1424   18.1260 C   0  0  0  0  0  0  0  0  0  0  0  0
  -13.4768  -28.6126   18.2782 C   0  0  0  0  0  0  0  0  0  0  0  0
  -13.3073  -27.8037   17.0616 N   0  0  0  0  0  0  0  0  0  0  0  0
  -14.3375  -28.0111   16.0298 C   0  0  0  0  0  0  0  0  0  0  0  0
  -14.0875  -27.1955   14.7300 C   0  0  0  0  0  0  0  0  0  0  0  0
  -13.0227  -26.1886   14.8704 N   0  0  0  0  0  0  0  0  0  0  0  0
  -11.7818  -26.8750   15.2763 C   0  0  0  0  0  0  0  0  0  0  0  0
  -11.9609  -27.8519   16.4711 C   0  0  0  0  0  0  0  0  0  0  0  0
  -13.2789  -27.1204   27.8311 H   0  0  0  0  0  0  0  0  0  0  0  0
  -13.9918  -25.6590   28.5965 H   0  0  0  0  0  0  0  0  0  0  0  0
  -14.6844  -26.4632   27.2269 H   0  0  0  0  0  0  0  0  0  0  0  0
  -13.1117  -22.9817   27.1674 H   0  0  0  0  0  0  0  0  0  0  0  0
   -9.7314  -24.9056   25.9515 H   0  0  0  0  0  0  0  0  0  0  0  0
  -11.3994  -27.2955   25.1366 H   0  0  0  0  0  0  0  0  0  0  0  0
  -12.2744  -27.7391   26.4705 H   0  0  0  0  0  0  0  0  0  0  0  0
  -14.6136  -25.9474   25.6012 H   0  0  0  0  0  0  0  0  0  0  0  0
  -13.8213  -25.8113   24.1585 H   0  0  0  0  0  0  0  0  0  0  0  0
  -13.1807  -27.3149   22.9513 H   0  0  0  0  0  0  0  0  0  0  0  0
  -12.1340  -30.8855   22.6425 H   0  0  0  0  0  0  0  0  0  0  0  0
  -13.9163  -30.9829   22.3135 H   0  0  0  0  0  0  0  0  0  0  0  0
  -11.6257  -30.2989   20.1811 H   0  0  0  0  0  0  0  0  0  0  0  0
  -12.2165  -31.7651   20.8143 H   0  0  0  0  0  0  0  0  0  0  0  0
  -13.4676  -32.0265   19.1064 H   0  0  0  0  0  0  0  0  0  0  0  0
  -14.6284  -30.9527   19.7975 H   0  0  0  0  0  0  0  0  0  0  0  0
  -14.3210  -30.4370   17.4908 H   0  0  0  0  0  0  0  0  0  0  0  0
  -12.5841  -30.4680   17.5875 H   0  0  0  0  0  0  0  0  0  0  0  0
  -12.6958  -28.3242   18.9864 H   0  0  0  0  0  0  0  0  0  0  0  0
  -14.4215  -28.3145   18.7498 H   0  0  0  0  0  0  0  0  0  0  0  0
  -15.3076  -27.7130   16.4451 H   0  0  0  0  0  0  0  0  0  0  0  0
  -14.4099  -29.0677   15.7484 H   0  0  0  0  0  0  0  0  0  0  0  0
  -15.0137  -26.6880   14.4377 H   0  0  0  0  0  0  0  0  0  0  0  0
  -13.8309  -27.8769   13.9093 H   0  0  0  0  0  0  0  0  0  0  0  0
  -13.3004  -25.6125   15.6701 H   0  0  0  0  0  0  0  0  0  0  0  0
  -11.0439  -26.1096   15.5410 H   0  0  0  0  0  0  0  0  0  0  0  0
  -11.3716  -27.4189   14.4169 H   0  0  0  0  0  0  0  0  0  0  0  0
  -11.7311  -28.8674   16.1277 H   0  0  0  0  0  0  0  0  0  0  0  0
  -11.2220  -27.5809   17.2308 H   0  0  0  0  0  0  0  0  0  0  0  0
  1  2  1  0
  2  3  1  0
  3  4  2  0
  4  5  1  0
  5  6  2  0
  6  7  1  0
  7  8  1  0
  8  9  1  0
  9 10  2  0
  9 11  1  0
 11 12  1  0
 12 13  1  0
 13 14  1  0
 14 15  1  0
 15 16  1  0
 16 17  1  0
 17 18  1  0
 18 19  1  0
 19 20  1  0
 20 21  1  0
 21 22  1  0
  6  2  1  0
 22 17  1  0
  1 23  1  0
  1 24  1  0
  1 25  1  0
  3 26  1  0
  5 27  1  0
  7 28  1  0
  7 29  1  0
  8 30  1  0
  8 31  1  0
 11 32  1  0
 12 33  1  0
 12 34  1  0
 13 35  1  0
 13 36  1  0
 14 37  1  0
 14 38  1  0
 15 39  1  0
 15 40  1  0
 16 41  1  0
 16 42  1  0
 18 43  1  0
 18 44  1  0
 19 45  1  0
 19 46  1  0
 20 47  1  0
 21 48  1  0
 21 49  1  0
 22 50  1  0
 22 51  1  0
M  END
>  <Energy>  (897) 
637.45953354494213

>  <compound_id>  (897) 
49465

>  <target_id>  (897) 
1

>  <reference_id>  (897) 
9

>  <inspiration_ids>  (897) 
[101, 9]

>  <energy_score>  (897) 
529.6455129393652

>  <distance_score>  (897) 
2.871421729395059

>  <path>  (897) 
/opt/xchem-fragalysis-2/maxwin/BulkDock/SCRATCH/511020/C49465-P9/C49465-P9.minimised.mol

>  <scratch_subdir>  (897) 
/opt/xchem-fragalysis-2/maxwin/BulkDock/SCRATCH/511020/C49465-P9

>  <fragmenstein_runtime>  (897) 
8.230350017547607

>  <fragmenstein_outcome>  (897) 
too moved

>  <fragmenstein_mode>  (897) 
expansion

>  <fragmenstein_error>  (897) 


$$$$
C8676-P80
     RDKit          3D

 37 39  0  0  0  0  0  0  0  0999 V2000
   -3.3322   -5.7551   25.1684 C   0  0  0  0  0  0  0  0  0  0  0  0
   -2.4459   -6.9778   25.0179 C   0  0  0  0  0  0  0  0  0  0  0  0
   -2.6189   -7.6406   23.7380 N   0  0  0  0  0  0  0  0  0  0  0  0
   -1.8931   -7.3083   22.6183 C   0  0  0  0  0  0  0  0  0  0  0  0
   -2.2227   -8.0624   21.6023 N   0  0  0  0  0  0  0  0  0  0  0  0
   -3.1886   -8.9184   22.0796 C   0  0  0  0  0  0  0  0  0  0  0  0
   -3.4581   -8.7207   23.4346 C   0  0  0  0  0  0  0  0  0  0  0  0
   -4.3965   -9.4800   24.4796 C   0  0  0  0  0  0  0  0  0  0  0  0
   -5.9048   -9.9379   24.2630 N   0  0  0  0  0  0  0  0  0  0  0  0
   -6.0244   -8.5568   23.7595 C   0  0  0  0  0  0  0  0  0  0  0  0
   -6.4279  -10.5545   25.4804 C   0  0  0  0  0  0  0  0  0  0  0  0
   -7.0095  -10.0628   26.4177 O   0  0  0  0  0  0  0  0  0  0  0  0
   -6.3772  -12.1301   25.6425 C   0  0  0  0  0  0  0  0  0  0  0  0
   -5.1289  -12.8178   26.1176 C   0  0  0  0  0  0  0  0  0  0  0  0
   -5.2777  -14.0658   26.6094 C   0  0  0  0  0  0  0  0  0  0  0  0
   -6.5348  -14.6578   26.6393 N   0  0  0  0  0  0  0  0  0  0  0  0
   -6.9456  -15.8533   27.1802 C   0  0  0  0  0  0  0  0  0  0  0  0
   -8.3042  -15.8874   26.9803 C   0  0  0  0  0  0  0  0  0  0  0  0
   -8.7247  -14.7675   26.3040 N   0  0  0  0  0  0  0  0  0  0  0  0
   -7.6502  -14.0175   26.1101 C   0  0  0  0  0  0  0  0  0  0  0  0
   -7.5450  -12.7472   25.5842 N   0  0  0  0  0  0  0  0  0  0  0  0
   -3.1526   -5.2741   26.1349 H   0  0  0  0  0  0  0  0  0  0  0  0
   -4.3915   -6.0205   25.1137 H   0  0  0  0  0  0  0  0  0  0  0  0
   -3.1314   -5.0215   24.3804 H   0  0  0  0  0  0  0  0  0  0  0  0
   -2.6354   -7.7027   25.8142 H   0  0  0  0  0  0  0  0  0  0  0  0
   -1.3910   -6.6893   25.0969 H   0  0  0  0  0  0  0  0  0  0  0  0
   -1.1528   -6.5184   22.6042 H   0  0  0  0  0  0  0  0  0  0  0  0
   -3.6391   -9.6583   21.4266 H   0  0  0  0  0  0  0  0  0  0  0  0
   -4.3603   -8.9557   25.4485 H   0  0  0  0  0  0  0  0  0  0  0  0
   -3.8774  -10.4205   24.6956 H   0  0  0  0  0  0  0  0  0  0  0  0
   -7.1157   -8.4308   23.6776 H   0  0  0  0  0  0  0  0  0  0  0  0
   -5.7066   -8.4320   22.7201 H   0  0  0  0  0  0  0  0  0  0  0  0
   -5.7761   -7.7476   24.4606 H   0  0  0  0  0  0  0  0  0  0  0  0
   -4.1897  -12.2876   26.1028 H   0  0  0  0  0  0  0  0  0  0  0  0
   -4.4557  -14.6369   27.0214 H   0  0  0  0  0  0  0  0  0  0  0  0
   -6.2631  -16.5356   27.6648 H   0  0  0  0  0  0  0  0  0  0  0  0
   -9.0043  -16.6539   27.2835 H   0  0  0  0  0  0  0  0  0  0  0  0
  1  2  1  0
  2  3  1  0
  3  4  1  0
  4  5  2  0
  5  6  1  0
  6  7  2  0
  7  8  1  0
  8  9  1  0
  9 10  1  0
  9 11  1  0
 11 12  2  0
 11 13  1  0
 13 14  1  0
 14 15  2  0
 15 16  1  0
 16 17  1  0
 17 18  2  0
 18 19  1  0
 19 20  2  0
 20 21  1  0
  7  3  1  0
 21 13  2  0
 20 16  1  0
  1 22  1  0
  1 23  1  0
  1 24  1  0
  2 25  1  0
  2 26  1  0
  4 27  1  0
  6 28  1  0
  8 29  1  0
  8 30  1  0
 10 31  1  0
 10 32  1  0
 10 33  1  0
 14 34  1  0
 15 35  1  0
 17 36  1  0
 18 37  1  0
M  END
>  <Energy>  (898) 
147.11380896162845

>  <compound_id>  (898) 
8676

>  <target_id>  (898) 
1

>  <reference_id>  (898) 
80

>  <inspiration_ids>  (898) 
[80, 107]

>  <energy_score>  (898) 
65.66627759124901

>  <distance_score>  (898) 
14.449994422824279

>  <path>  (898) 
/opt/xchem-fragalysis-2/maxwin/BulkDock/SCRATCH/511020/C8676-P80/C8676-P80.minimised.mol

>  <scratch_subdir>  (898) 
/opt/xchem-fragalysis-2/maxwin/BulkDock/SCRATCH/511020/C8676-P80

>  <fragmenstein_runtime>  (898) 
20.727577686309814

>  <fragmenstein_outcome>  (898) 
too moved

>  <fragmenstein_mode>  (898) 
expansion

>  <fragmenstein_error>  (898) 


$$$$
C8676-P107
     RDKit          3D

 37 39  0  0  0  0  0  0  0  0999 V2000
   -0.1392  -19.6934   12.6287 C   0  0  0  0  0  0  0  0  0  0  0  0
   -0.5680  -20.0509   14.0453 C   0  0  0  0  0  0  0  0  0  0  0  0
    0.4753  -20.0555   15.0592 N   0  0  0  0  0  0  0  0  0  0  0  0
    1.7293  -19.5186   14.9198 C   0  0  0  0  0  0  0  0  0  0  0  0
    2.4354  -19.6556   16.0085 N   0  0  0  0  0  0  0  0  0  0  0  0
    1.6225  -20.3570   16.8779 C   0  0  0  0  0  0  0  0  0  0  0  0
    0.3656  -20.6328   16.3352 C   0  0  0  0  0  0  0  0  0  0  0  0
   -0.9714  -21.3279   16.8833 C   0  0  0  0  0  0  0  0  0  0  0  0
   -1.1832  -22.8253   17.4545 N   0  0  0  0  0  0  0  0  0  0  0  0
   -0.3154  -23.1494   16.3095 C   0  0  0  0  0  0  0  0  0  0  0  0
   -0.9206  -22.8672   18.8851 C   0  0  0  0  0  0  0  0  0  0  0  0
    0.1002  -23.0902   19.4852 O   0  0  0  0  0  0  0  0  0  0  0  0
   -2.2028  -22.7056   19.8579 C   0  0  0  0  0  0  0  0  0  0  0  0
   -3.4992  -23.3507   19.4139 C   0  0  0  0  0  0  0  0  0  0  0  0
   -4.4416  -23.5442   20.3584 C   0  0  0  0  0  0  0  0  0  0  0  0
   -4.2078  -23.1250   21.6601 N   0  0  0  0  0  0  0  0  0  0  0  0
   -4.9545  -23.2980   22.7994 C   0  0  0  0  0  0  0  0  0  0  0  0
   -4.2126  -22.7239   23.8035 C   0  0  0  0  0  0  0  0  0  0  0  0
   -3.0664  -22.1617   23.3009 N   0  0  0  0  0  0  0  0  0  0  0  0
   -3.0428  -22.4469   22.0074 C   0  0  0  0  0  0  0  0  0  0  0  0
   -2.0425  -22.2353   21.0800 N   0  0  0  0  0  0  0  0  0  0  0  0
    0.2377  -18.6686   12.5664 H   0  0  0  0  0  0  0  0  0  0  0  0
   -0.9923  -19.7750   11.9475 H   0  0  0  0  0  0  0  0  0  0  0  0
    0.6452  -20.3686   12.2709 H   0  0  0  0  0  0  0  0  0  0  0  0
   -0.9941  -21.0579   14.0168 H   0  0  0  0  0  0  0  0  0  0  0  0
   -1.3421  -19.3590   14.3928 H   0  0  0  0  0  0  0  0  0  0  0  0
    2.0785  -19.0460   14.0124 H   0  0  0  0  0  0  0  0  0  0  0  0
    1.9969  -20.6384   17.8566 H   0  0  0  0  0  0  0  0  0  0  0  0
   -1.7327  -21.2479   16.0892 H   0  0  0  0  0  0  0  0  0  0  0  0
   -1.4050  -20.6700   17.6371 H   0  0  0  0  0  0  0  0  0  0  0  0
   -0.7015  -22.9037   15.3120 H   0  0  0  0  0  0  0  0  0  0  0  0
    0.7505  -22.9712   16.4924 H   0  0  0  0  0  0  0  0  0  0  0  0
   -0.3425  -24.2504   16.3012 H   0  0  0  0  0  0  0  0  0  0  0  0
   -3.5974  -23.6805   18.3891 H   0  0  0  0  0  0  0  0  0  0  0  0
   -5.3843  -24.0377   20.1587 H   0  0  0  0  0  0  0  0  0  0  0  0
   -5.8996  -23.8207   22.8008 H   0  0  0  0  0  0  0  0  0  0  0  0
   -4.4373  -22.6808   24.8607 H   0  0  0  0  0  0  0  0  0  0  0  0
  1  2  1  0
  2  3  1  0
  3  4  1  0
  4  5  2  0
  5  6  1  0
  6  7  2  0
  7  8  1  0
  8  9  1  0
  9 10  1  0
  9 11  1  0
 11 12  2  0
 11 13  1  0
 13 14  1  0
 14 15  2  0
 15 16  1  0
 16 17  1  0
 17 18  2  0
 18 19  1  0
 19 20  2  0
 20 21  1  0
  7  3  1  0
 21 13  2  0
 20 16  1  0
  1 22  1  0
  1 23  1  0
  1 24  1  0
  2 25  1  0
  2 26  1  0
  4 27  1  0
  6 28  1  0
  8 29  1  0
  8 30  1  0
 10 31  1  0
 10 32  1  0
 10 33  1  0
 14 34  1  0
 15 35  1  0
 17 36  1  0
 18 37  1  0
M  END
>  <Energy>  (899) 
152.04949032111926

>  <compound_id>  (899) 
8676

>  <target_id>  (899) 
1

>  <reference_id>  (899) 
107

>  <inspiration_ids>  (899) 
[80, 107]

>  <energy_score>  (899) 
70.60195895073724

>  <distance_score>  (899) 
16.317103372921398

>  <path>  (899) 
/opt/xchem-fragalysis-2/maxwin/BulkDock/SCRATCH/511020/C8676-P107/C8676-P107.minimised.mol

>  <scratch_subdir>  (899) 
/opt/xchem-fragalysis-2/maxwin/BulkDock/SCRATCH/511020/C8676-P107

>  <fragmenstein_runtime>  (899) 
19.47155213356018

>  <fragmenstein_outcome>  (899) 
too moved

>  <fragmenstein_mode>  (899) 
expansion

>  <fragmenstein_error>  (899) 


$$$$
C8677-P80
     RDKit          3D

 35 37  0  0  0  0  0  0  0  0999 V2000
   -1.4653  -19.0547   21.6091 C   0  0  0  0  0  0  0  0  0  0  0  0
   -2.2374  -18.0596   22.4655 C   0  0  0  0  0  0  0  0  0  0  0  0
   -1.9274  -18.2164   23.8886 N   0  0  0  0  0  0  0  0  0  0  0  0
   -0.9568  -17.1910   24.4350 C   0  0  0  0  0  0  0  0  0  0  0  0
    0.2837  -16.6354   23.6332 C   0  0  0  0  0  0  0  0  0  0  0  0
    0.5626  -16.7155   22.3358 N   0  0  0  0  0  0  0  0  0  0  0  0
    1.8446  -16.2300   22.1736 C   0  0  0  0  0  0  0  0  0  0  0  0
    2.3477  -15.7920   23.3715 C   0  0  0  0  0  0  0  0  0  0  0  0
    1.3204  -15.9517   24.2606 N   0  0  0  0  0  0  0  0  0  0  0  0
    1.3525  -15.5487   25.6457 C   0  0  0  0  0  0  0  0  0  0  0  0
   -2.5621  -19.1714   24.7259 C   0  0  0  0  0  0  0  0  0  0  0  0
   -3.4194  -20.2857   24.1217 C   0  0  0  0  0  0  0  0  0  0  0  0
   -3.8071  -21.2919   24.9161 C   0  0  0  0  0  0  0  0  0  0  0  0
   -3.4977  -21.2373   26.2547 N   0  0  0  0  0  0  0  0  0  0  0  0
   -3.6882  -22.1709   27.2374 C   0  0  0  0  0  0  0  0  0  0  0  0
   -3.0670  -21.6464   28.3433 C   0  0  0  0  0  0  0  0  0  0  0  0
   -2.6229  -20.3750   28.0960 N   0  0  0  0  0  0  0  0  0  0  0  0
   -2.8303  -20.1551   26.8100 C   0  0  0  0  0  0  0  0  0  0  0  0
   -2.3826  -19.1198   26.0323 N   0  0  0  0  0  0  0  0  0  0  0  0
   -0.3889  -19.0063   21.7927 H   0  0  0  0  0  0  0  0  0  0  0  0
   -1.7724  -20.0857   21.8040 H   0  0  0  0  0  0  0  0  0  0  0  0
   -1.6411  -18.8517   20.5480 H   0  0  0  0  0  0  0  0  0  0  0  0
   -3.3140  -18.1805   22.2983 H   0  0  0  0  0  0  0  0  0  0  0  0
   -2.0202  -17.0387   22.1309 H   0  0  0  0  0  0  0  0  0  0  0  0
   -0.5331  -17.6012   25.3596 H   0  0  0  0  0  0  0  0  0  0  0  0
   -1.5534  -16.3141   24.7179 H   0  0  0  0  0  0  0  0  0  0  0  0
    2.3248  -16.2169   21.2051 H   0  0  0  0  0  0  0  0  0  0  0  0
    3.2906  -15.3507   23.6502 H   0  0  0  0  0  0  0  0  0  0  0  0
    2.2094  -14.8930   25.8129 H   0  0  0  0  0  0  0  0  0  0  0  0
    1.4464  -16.4448   26.2639 H   0  0  0  0  0  0  0  0  0  0  0  0
    0.4290  -15.0130   25.8779 H   0  0  0  0  0  0  0  0  0  0  0  0
   -3.6477  -20.2787   23.0672 H   0  0  0  0  0  0  0  0  0  0  0  0
   -4.3487  -22.1554   24.5538 H   0  0  0  0  0  0  0  0  0  0  0  0
   -4.1667  -23.1169   27.0438 H   0  0  0  0  0  0  0  0  0  0  0  0
   -2.9260  -22.1018   29.3150 H   0  0  0  0  0  0  0  0  0  0  0  0
  1  2  1  0
  2  3  1  0
  3  4  1  0
  4  5  1  0
  5  6  2  0
  6  7  1  0
  7  8  2  0
  8  9  1  0
  9 10  1  0
  3 11  1  0
 11 12  1  0
 12 13  2  0
 13 14  1  0
 14 15  1  0
 15 16  2  0
 16 17  1  0
 17 18  2  0
 18 19  1  0
  9  5  1  0
 19 11  2  0
 18 14  1  0
  1 20  1  0
  1 21  1  0
  1 22  1  0
  2 23  1  0
  2 24  1  0
  4 25  1  0
  4 26  1  0
  7 27  1  0
  8 28  1  0
 10 29  1  0
 10 30  1  0
 10 31  1  0
 12 32  1  0
 13 33  1  0
 15 34  1  0
 16 35  1  0
M  END
>  <Energy>  (900) 
11.934840489445484

>  <compound_id>  (900) 
8677

>  <target_id>  (900) 
1

>  <reference_id>  (900) 
80

>  <inspiration_ids>  (900) 
[80, 107]

>  <energy_score>  (900) 
-25.373124149793114

>  <distance_score>  (900) 
14.180373580882224

>  <path>  (900) 
/opt/xchem-fragalysis-2/maxwin/BulkDock/SCRATCH/511020/C8677-P80/C8677-P80.minimised.mol

>  <scratch_subdir>  (900) 
/opt/xchem-fragalysis-2/maxwin/BulkDock/SCRATCH/511020/C8677-P80

>  <fragmenstein_runtime>  (900) 
18.919090509414673

>  <fragmenstein_outcome>  (900) 
too moved

>  <fragmenstein_mode>  (900) 
expansion

>  <fragmenstein_error>  (900) 


$$$$
C8677-P107
     RDKit          3D

 35 37  0  0  0  0  0  0  0  0999 V2000
   -2.4618  -16.5668   24.3442 C   0  0  0  0  0  0  0  0  0  0  0  0
   -2.2742  -15.8999   25.6990 C   0  0  0  0  0  0  0  0  0  0  0  0
   -1.6383  -16.8439   26.6406 N   0  0  0  0  0  0  0  0  0  0  0  0
   -0.1446  -16.5760   26.8003 C   0  0  0  0  0  0  0  0  0  0  0  0
    0.7798  -16.0069   25.6707 C   0  0  0  0  0  0  0  0  0  0  0  0
    1.4160  -14.8419   25.7032 N   0  0  0  0  0  0  0  0  0  0  0  0
    2.2239  -14.7955   24.5921 C   0  0  0  0  0  0  0  0  0  0  0  0
    2.1218  -15.9522   23.8716 C   0  0  0  0  0  0  0  0  0  0  0  0
    1.2193  -16.7145   24.5658 N   0  0  0  0  0  0  0  0  0  0  0  0
    0.8575  -18.0630   24.2015 C   0  0  0  0  0  0  0  0  0  0  0  0
   -2.3966  -17.2499   27.7893 C   0  0  0  0  0  0  0  0  0  0  0  0
   -1.8643  -18.3488   28.6975 C   0  0  0  0  0  0  0  0  0  0  0  0
   -2.5262  -18.6066   29.8369 C   0  0  0  0  0  0  0  0  0  0  0  0
   -3.6888  -17.9097   30.1181 N   0  0  0  0  0  0  0  0  0  0  0  0
   -4.5377  -17.9998   31.1918 C   0  0  0  0  0  0  0  0  0  0  0  0
   -5.5739  -17.1462   30.8969 C   0  0  0  0  0  0  0  0  0  0  0  0
   -5.3600  -16.5162   29.6947 N   0  0  0  0  0  0  0  0  0  0  0  0
   -4.2178  -16.9885   29.2251 C   0  0  0  0  0  0  0  0  0  0  0  0
   -3.5524  -16.6766   28.0672 N   0  0  0  0  0  0  0  0  0  0  0  0
   -1.5192  -16.6336   23.7979 H   0  0  0  0  0  0  0  0  0  0  0  0
   -3.1540  -15.9869   23.7259 H   0  0  0  0  0  0  0  0  0  0  0  0
   -2.8627  -17.5801   24.4472 H   0  0  0  0  0  0  0  0  0  0  0  0
   -3.2566  -15.5678   26.0465 H   0  0  0  0  0  0  0  0  0  0  0  0
   -1.6849  -14.9823   25.5997 H   0  0  0  0  0  0  0  0  0  0  0  0
   -0.0433  -15.8771   27.6420 H   0  0  0  0  0  0  0  0  0  0  0  0
    0.3271  -17.5129   27.1203 H   0  0  0  0  0  0  0  0  0  0  0  0
    2.8244  -13.9345   24.3516 H   0  0  0  0  0  0  0  0  0  0  0  0
    2.5878  -16.2765   22.9522 H   0  0  0  0  0  0  0  0  0  0  0  0
    0.0005  -18.3992   24.7870 H   0  0  0  0  0  0  0  0  0  0  0  0
    1.7168  -18.7098   24.3963 H   0  0  0  0  0  0  0  0  0  0  0  0
    0.6029  -18.0797   23.1385 H   0  0  0  0  0  0  0  0  0  0  0  0
   -0.9653  -18.8735   28.4102 H   0  0  0  0  0  0  0  0  0  0  0  0
   -2.2033  -19.3486   30.5549 H   0  0  0  0  0  0  0  0  0  0  0  0
   -4.3625  -18.6610   32.0273 H   0  0  0  0  0  0  0  0  0  0  0  0
   -6.4622  -16.9545   31.4834 H   0  0  0  0  0  0  0  0  0  0  0  0
  1  2  1  0
  2  3  1  0
  3  4  1  0
  4  5  1  0
  5  6  2  0
  6  7  1  0
  7  8  2  0
  8  9  1  0
  9 10  1  0
  3 11  1  0
 11 12  1  0
 12 13  2  0
 13 14  1  0
 14 15  1  0
 15 16  2  0
 16 17  1  0
 17 18  2  0
 18 19  1  0
  9  5  1  0
 19 11  2  0
 18 14  1  0
  1 20  1  0
  1 21  1  0
  1 22  1  0
  2 23  1  0
  2 24  1  0
  4 25  1  0
  4 26  1  0
  7 27  1  0
  8 28  1  0
 10 29  1  0
 10 30  1  0
 10 31  1  0
 12 32  1  0
 13 33  1  0
 15 34  1  0
 16 35  1  0
M  END
>  <Energy>  (901) 
15.320658127635838

>  <compound_id>  (901) 
8677

>  <target_id>  (901) 
1

>  <reference_id>  (901) 
107

>  <inspiration_ids>  (901) 
[80, 107]

>  <energy_score>  (901) 
-21.987306511604856

>  <distance_score>  (901) 
14.308236067958159

>  <path>  (901) 
/opt/xchem-fragalysis-2/maxwin/BulkDock/SCRATCH/511020/C8677-P107/C8677-P107.minimised.mol

>  <scratch_subdir>  (901) 
/opt/xchem-fragalysis-2/maxwin/BulkDock/SCRATCH/511020/C8677-P107

>  <fragmenstein_runtime>  (901) 
20.234988689422607

>  <fragmenstein_outcome>  (901) 
too moved

>  <fragmenstein_mode>  (901) 
expansion

>  <fragmenstein_error>  (901) 


$$$$
C8678-P80
     RDKit          3D

 31 33  0  0  0  0  0  0  0  0999 V2000
   -0.3442  -15.5686   21.8367 O   0  0  0  0  0  0  0  0  0  0  0  0
   -0.8154  -14.8081   22.6902 C   0  0  0  0  0  0  0  0  0  0  0  0
   -0.3100  -13.2715   23.2010 N   0  0  0  0  0  0  0  0  0  0  0  0
    1.1775  -11.8497   22.6202 C   0  0  0  0  0  0  0  0  0  0  0  0
    3.1851  -12.3227   22.3865 C   0  0  0  0  0  0  0  0  0  0  0  0
    4.4904  -12.5071   20.9155 C   0  0  0  0  0  0  0  0  0  0  0  0
    4.2177  -12.9875   19.6083 N   0  0  0  0  0  0  0  0  0  0  0  0
    5.2636  -12.9908   18.8098 C   0  0  0  0  0  0  0  0  0  0  0  0
    6.3171  -12.4499   19.4222 N   0  0  0  0  0  0  0  0  0  0  0  0
    5.9364  -12.1474   20.7009 C   0  0  0  0  0  0  0  0  0  0  0  0
    7.4396  -11.3882   21.7607 Br  0  0  0  0  0  0  0  0  0  0  0  0
   -2.4608  -15.3135   23.9786 C   0  0  0  0  0  0  0  0  0  0  0  0
   -2.5107  -16.2090   25.2674 C   0  0  0  0  0  0  0  0  0  0  0  0
   -2.8936  -17.1377   26.2957 C   0  0  0  0  0  0  0  0  0  0  0  0
   -4.3126  -17.1950   26.5258 N   0  0  0  0  0  0  0  0  0  0  0  0
   -5.1188  -17.7701   27.4520 C   0  0  0  0  0  0  0  0  0  0  0  0
   -6.2964  -17.1332   27.2409 C   0  0  0  0  0  0  0  0  0  0  0  0
   -6.3899  -16.3846   25.7325 N   0  0  0  0  0  0  0  0  0  0  0  0
   -5.1308  -16.1837   25.2979 C   0  0  0  0  0  0  0  0  0  0  0  0
   -4.0661  -15.3028   24.0696 N   0  0  0  0  0  0  0  0  0  0  0  0
   -0.8368  -12.9987   23.9313 H   0  0  0  0  0  0  0  0  0  0  0  0
    1.4975  -11.7092   23.6631 H   0  0  0  0  0  0  0  0  0  0  0  0
    0.6162  -10.9700   22.2108 H   0  0  0  0  0  0  0  0  0  0  0  0
    3.2940  -12.9830   23.2556 H   0  0  0  0  0  0  0  0  0  0  0  0
    3.6336  -11.3798   22.6684 H   0  0  0  0  0  0  0  0  0  0  0  0
    5.2932  -13.3622   17.7962 H   0  0  0  0  0  0  0  0  0  0  0  0
    7.2339  -12.3097   19.0260 H   0  0  0  0  0  0  0  0  0  0  0  0
   -2.2968  -15.2075   25.7761 H   0  0  0  0  0  0  0  0  0  0  0  0
   -2.3242  -17.3564   27.1942 H   0  0  0  0  0  0  0  0  0  0  0  0
   -4.7467  -18.3793   28.2632 H   0  0  0  0  0  0  0  0  0  0  0  0
   -7.1850  -17.0583   27.8682 H   0  0  0  0  0  0  0  0  0  0  0  0
  1  2  2  0
  2  3  1  0
  3  4  1  0
  4  5  1  0
  5  6  1  0
  6  7  1  0
  7  8  2  0
  8  9  1  0
  9 10  1  0
 10 11  1  0
  2 12  1  0
 12 13  1  0
 13 14  2  0
 14 15  1  0
 15 16  1  0
 16 17  2  0
 17 18  1  0
 18 19  2  0
 19 20  1  0
 10  6  2  0
 20 12  2  0
 19 15  1  0
  3 21  1  0
  4 22  1  0
  4 23  1  0
  5 24  1  0
  5 25  1  0
  8 26  1  0
  9 27  1  0
 13 28  1  0
 14 29  1  0
 16 30  1  0
 17 31  1  0
M  END
>  <Energy>  (902) 
849.0538264342099

>  <compound_id>  (902) 
8678

>  <target_id>  (902) 
1

>  <reference_id>  (902) 
80

>  <inspiration_ids>  (902) 
[80, 107]

>  <energy_score>  (902) 
768.9173443953838

>  <distance_score>  (902) 
12.591132389908475

>  <path>  (902) 
/opt/xchem-fragalysis-2/maxwin/BulkDock/SCRATCH/511020/C8678-P80/C8678-P80.minimised.mol

>  <scratch_subdir>  (902) 
/opt/xchem-fragalysis-2/maxwin/BulkDock/SCRATCH/511020/C8678-P80

>  <fragmenstein_runtime>  (902) 
23.862250804901123

>  <fragmenstein_outcome>  (902) 
too moved

>  <fragmenstein_mode>  (902) 
expansion

>  <fragmenstein_error>  (902) 


$$$$
C8678-P107
     RDKit          3D

 31 33  0  0  0  0  0  0  0  0999 V2000
   -0.6028  -14.4438   22.9808 O   0  0  0  0  0  0  0  0  0  0  0  0
   -0.3110  -14.2061   24.1187 C   0  0  0  0  0  0  0  0  0  0  0  0
    1.4122  -13.4796   24.4816 N   0  0  0  0  0  0  0  0  0  0  0  0
    2.8871  -13.1469   23.3872 C   0  0  0  0  0  0  0  0  0  0  0  0
    3.7014  -12.7198   21.6453 C   0  0  0  0  0  0  0  0  0  0  0  0
    5.3044  -12.5514   20.6336 C   0  0  0  0  0  0  0  0  0  0  0  0
    6.3263  -11.6217   21.1067 N   0  0  0  0  0  0  0  0  0  0  0  0
    7.3706  -11.6562   20.3125 C   0  0  0  0  0  0  0  0  0  0  0  0
    7.0682  -12.3788   19.2227 N   0  0  0  0  0  0  0  0  0  0  0  0
    5.8548  -13.0052   19.4165 C   0  0  0  0  0  0  0  0  0  0  0  0
    5.4344  -14.2290   18.0274 Br  0  0  0  0  0  0  0  0  0  0  0  0
   -1.8237  -14.8382   25.3754 C   0  0  0  0  0  0  0  0  0  0  0  0
   -1.8245  -15.0790   27.2725 C   0  0  0  0  0  0  0  0  0  0  0  0
   -2.1739  -16.0938   28.1007 C   0  0  0  0  0  0  0  0  0  0  0  0
   -2.6856  -17.2013   27.5298 N   0  0  0  0  0  0  0  0  0  0  0  0
   -3.1570  -18.3331   28.1389 C   0  0  0  0  0  0  0  0  0  0  0  0
   -3.5411  -19.1392   27.1136 C   0  0  0  0  0  0  0  0  0  0  0  0
   -3.2916  -18.5049   25.9256 N   0  0  0  0  0  0  0  0  0  0  0  0
   -2.7987  -17.2808   26.1313 C   0  0  0  0  0  0  0  0  0  0  0  0
   -2.5855  -16.0374   25.0342 N   0  0  0  0  0  0  0  0  0  0  0  0
    1.4681  -13.2571   25.4719 H   0  0  0  0  0  0  0  0  0  0  0  0
    2.6490  -12.1070   23.5436 H   0  0  0  0  0  0  0  0  0  0  0  0
    3.6063  -13.5398   24.0863 H   0  0  0  0  0  0  0  0  0  0  0  0
    3.2275  -13.3215   20.9174 H   0  0  0  0  0  0  0  0  0  0  0  0
    3.8614  -11.7002   21.9795 H   0  0  0  0  0  0  0  0  0  0  0  0
    8.3026  -11.1245   20.4478 H   0  0  0  0  0  0  0  0  0  0  0  0
    7.6537  -12.5240   18.4138 H   0  0  0  0  0  0  0  0  0  0  0  0
   -0.9934  -14.6440   27.7629 H   0  0  0  0  0  0  0  0  0  0  0  0
   -1.9582  -16.1118   29.1623 H   0  0  0  0  0  0  0  0  0  0  0  0
   -3.1837  -18.4533   29.2128 H   0  0  0  0  0  0  0  0  0  0  0  0
   -3.9698  -20.1319   27.1511 H   0  0  0  0  0  0  0  0  0  0  0  0
  1  2  2  0
  2  3  1  0
  3  4  1  0
  4  5  1  0
  5  6  1  0
  6  7  1  0
  7  8  2  0
  8  9  1  0
  9 10  1  0
 10 11  1  0
  2 12  1  0
 12 13  1  0
 13 14  2  0
 14 15  1  0
 15 16  1  0
 16 17  2  0
 17 18  1  0
 18 19  2  0
 19 20  1  0
 10  6  2  0
 20 12  2  0
 19 15  1  0
  3 21  1  0
  4 22  1  0
  4 23  1  0
  5 24  1  0
  5 25  1  0
  8 26  1  0
  9 27  1  0
 13 28  1  0
 14 29  1  0
 16 30  1  0
 17 31  1  0
M  END
>  <Energy>  (903) 
609.63303886758922

>  <compound_id>  (903) 
8678

>  <target_id>  (903) 
1

>  <reference_id>  (903) 
107

>  <inspiration_ids>  (903) 
[80, 107]

>  <energy_score>  (903) 
529.4965568287687

>  <distance_score>  (903) 
12.72485485082053

>  <path>  (903) 
/opt/xchem-fragalysis-2/maxwin/BulkDock/SCRATCH/511020/C8678-P107/C8678-P107.minimised.mol

>  <scratch_subdir>  (903) 
/opt/xchem-fragalysis-2/maxwin/BulkDock/SCRATCH/511020/C8678-P107

>  <fragmenstein_runtime>  (903) 
13.03897762298584

>  <fragmenstein_outcome>  (903) 
too moved

>  <fragmenstein_mode>  (903) 
expansion

>  <fragmenstein_error>  (903) 


$$$$
C8679-P80
     RDKit          3D

 31 33  0  0  0  0  0  0  0  0999 V2000
   -1.7745  -14.0960   27.0699 O   0  0  0  0  0  0  0  0  0  0  0  0
   -1.4896  -15.2360   26.8319 C   0  0  0  0  0  0  0  0  0  0  0  0
   -0.3094  -15.8067   26.2430 N   0  0  0  0  0  0  0  0  0  0  0  0
    0.8822  -15.2265   25.8592 C   0  0  0  0  0  0  0  0  0  0  0  0
    1.6958  -15.7831   24.9813 N   0  0  0  0  0  0  0  0  0  0  0  0
    2.7753  -14.9506   24.8440 C   0  0  0  0  0  0  0  0  0  0  0  0
    2.6757  -13.9002   25.7151 C   0  0  0  0  0  0  0  0  0  0  0  0
    1.4639  -14.0590   26.3473 N   0  0  0  0  0  0  0  0  0  0  0  0
    0.9684  -13.2754   27.4633 C   0  0  0  0  0  0  0  0  0  0  0  0
    1.9784  -12.4102   28.1866 C   0  0  0  0  0  0  0  0  0  0  0  0
    2.1778  -11.2507   27.5036 F   0  0  0  0  0  0  0  0  0  0  0  0
    1.4665  -12.0355   29.3906 F   0  0  0  0  0  0  0  0  0  0  0  0
   -2.5565  -16.2589   27.2788 C   0  0  0  0  0  0  0  0  0  0  0  0
   -3.7644  -16.4337   26.3959 C   0  0  0  0  0  0  0  0  0  0  0  0
   -4.8171  -17.0463   26.9668 C   0  0  0  0  0  0  0  0  0  0  0  0
   -4.7089  -17.4934   28.2752 N   0  0  0  0  0  0  0  0  0  0  0  0
   -5.6604  -17.9861   29.1206 C   0  0  0  0  0  0  0  0  0  0  0  0
   -4.9914  -18.2474   30.2948 C   0  0  0  0  0  0  0  0  0  0  0  0
   -3.6676  -17.9215   30.1886 N   0  0  0  0  0  0  0  0  0  0  0  0
   -3.5125  -17.4220   28.9825 C   0  0  0  0  0  0  0  0  0  0  0  0
   -2.4130  -16.7992   28.4558 N   0  0  0  0  0  0  0  0  0  0  0  0
   -0.4500  -16.8009   26.1179 H   0  0  0  0  0  0  0  0  0  0  0  0
    3.5793  -15.1967   24.1670 H   0  0  0  0  0  0  0  0  0  0  0  0
    3.3611  -13.1066   25.9500 H   0  0  0  0  0  0  0  0  0  0  0  0
    0.5538  -13.9797   28.1917 H   0  0  0  0  0  0  0  0  0  0  0  0
    0.1680  -12.6380   27.0807 H   0  0  0  0  0  0  0  0  0  0  0  0
    2.9415  -12.8975   28.3614 H   0  0  0  0  0  0  0  0  0  0  0  0
   -3.7658  -16.0104   25.4012 H   0  0  0  0  0  0  0  0  0  0  0  0
   -5.7697  -17.1758   26.4710 H   0  0  0  0  0  0  0  0  0  0  0  0
   -6.6945  -18.0995   28.8378 H   0  0  0  0  0  0  0  0  0  0  0  0
   -5.3782  -18.6544   31.2185 H   0  0  0  0  0  0  0  0  0  0  0  0
  1  2  2  0
  2  3  1  0
  3  4  1  0
  4  5  2  0
  5  6  1  0
  6  7  2  0
  7  8  1  0
  8  9  1  0
  9 10  1  0
 10 11  1  0
 10 12  1  0
  2 13  1  0
 13 14  1  0
 14 15  2  0
 15 16  1  0
 16 17  1  0
 17 18  2  0
 18 19  1  0
 19 20  2  0
 20 21  1  0
  8  4  1  0
 21 13  2  0
 20 16  1  0
  3 22  1  0
  6 23  1  0
  7 24  1  0
  9 25  1  0
  9 26  1  0
 10 27  1  0
 14 28  1  0
 15 29  1  0
 17 30  1  0
 18 31  1  0
M  END
>  <Energy>  (904) 
45.520690949686767

>  <compound_id>  (904) 
8679

>  <target_id>  (904) 
1

>  <reference_id>  (904) 
80

>  <inspiration_ids>  (904) 
[80, 107]

>  <energy_score>  (904) 
-31.11132811969952

>  <distance_score>  (904) 
14.225216298353038

>  <path>  (904) 
/opt/xchem-fragalysis-2/maxwin/BulkDock/SCRATCH/511020/C8679-P80/C8679-P80.minimised.mol

>  <scratch_subdir>  (904) 
/opt/xchem-fragalysis-2/maxwin/BulkDock/SCRATCH/511020/C8679-P80

>  <fragmenstein_runtime>  (904) 
27.785363912582397

>  <fragmenstein_outcome>  (904) 
too moved

>  <fragmenstein_mode>  (904) 
expansion

>  <fragmenstein_error>  (904) 


$$$$
C8679-P107
     RDKit          3D

 31 33  0  0  0  0  0  0  0  0999 V2000
   -1.2596  -18.1157   24.9571 O   0  0  0  0  0  0  0  0  0  0  0  0
   -1.4384  -17.2795   25.7965 C   0  0  0  0  0  0  0  0  0  0  0  0
   -0.6544  -16.1172   26.1569 N   0  0  0  0  0  0  0  0  0  0  0  0
    0.4852  -15.5762   25.5805 C   0  0  0  0  0  0  0  0  0  0  0  0
    1.0330  -15.9420   24.4375 N   0  0  0  0  0  0  0  0  0  0  0  0
    2.1735  -15.1976   24.2603 C   0  0  0  0  0  0  0  0  0  0  0  0
    2.3495  -14.3384   25.3102 C   0  0  0  0  0  0  0  0  0  0  0  0
    1.2740  -14.5742   26.1468 N   0  0  0  0  0  0  0  0  0  0  0  0
    1.2302  -14.0911   27.5142 C   0  0  0  0  0  0  0  0  0  0  0  0
   -0.0582  -13.4477   27.9862 C   0  0  0  0  0  0  0  0  0  0  0  0
   -1.0900  -14.3272   27.9344 F   0  0  0  0  0  0  0  0  0  0  0  0
   -0.3965  -12.3700   27.2470 F   0  0  0  0  0  0  0  0  0  0  0  0
   -2.6620  -17.5405   26.7216 C   0  0  0  0  0  0  0  0  0  0  0  0
   -2.4853  -18.6693   27.7109 C   0  0  0  0  0  0  0  0  0  0  0  0
   -3.5079  -18.8836   28.5550 C   0  0  0  0  0  0  0  0  0  0  0  0
   -4.6510  -18.1113   28.4346 N   0  0  0  0  0  0  0  0  0  0  0  0
   -5.7709  -18.0616   29.2164 C   0  0  0  0  0  0  0  0  0  0  0  0
   -6.6315  -17.2163   28.5660 C   0  0  0  0  0  0  0  0  0  0  0  0
   -6.0348  -16.6806   27.4534 N   0  0  0  0  0  0  0  0  0  0  0  0
   -4.8050  -17.1644   27.4231 C   0  0  0  0  0  0  0  0  0  0  0  0
   -3.7617  -16.8460   26.5834 N   0  0  0  0  0  0  0  0  0  0  0  0
   -1.0671  -15.6793   26.9731 H   0  0  0  0  0  0  0  0  0  0  0  0
    2.7948  -15.3410   23.3880 H   0  0  0  0  0  0  0  0  0  0  0  0
    3.1276  -13.6287   25.5438 H   0  0  0  0  0  0  0  0  0  0  0  0
    2.0442  -13.3656   27.6271 H   0  0  0  0  0  0  0  0  0  0  0  0
    1.4603  -14.9587   28.1439 H   0  0  0  0  0  0  0  0  0  0  0  0
    0.0412  -13.1203   29.0251 H   0  0  0  0  0  0  0  0  0  0  0  0
   -1.5609  -19.2316   27.7133 H   0  0  0  0  0  0  0  0  0  0  0  0
   -3.4953  -19.6353   29.3349 H   0  0  0  0  0  0  0  0  0  0  0  0
   -5.8510  -18.6171   30.1389 H   0  0  0  0  0  0  0  0  0  0  0  0
   -7.6351  -16.9345   28.8495 H   0  0  0  0  0  0  0  0  0  0  0  0
  1  2  2  0
  2  3  1  0
  3  4  1  0
  4  5  2  0
  5  6  1  0
  6  7  2  0
  7  8  1  0
  8  9  1  0
  9 10  1  0
 10 11  1  0
 10 12  1  0
  2 13  1  0
 13 14  1  0
 14 15  2  0
 15 16  1  0
 16 17  1  0
 17 18  2  0
 18 19  1  0
 19 20  2  0
 20 21  1  0
  8  4  1  0
 21 13  2  0
 20 16  1  0
  3 22  1  0
  6 23  1  0
  7 24  1  0
  9 25  1  0
  9 26  1  0
 10 27  1  0
 14 28  1  0
 15 29  1  0
 17 30  1  0
 18 31  1  0
M  END
>  <Energy>  (905) 
48.329813078419065

>  <compound_id>  (905) 
8679

>  <target_id>  (905) 
1

>  <reference_id>  (905) 
107

>  <inspiration_ids>  (905) 
[80, 107]

>  <energy_score>  (905) 
-28.302205990963614

>  <distance_score>  (905) 
14.041108497775008

>  <path>  (905) 
/opt/xchem-fragalysis-2/maxwin/BulkDock/SCRATCH/511020/C8679-P107/C8679-P107.minimised.mol

>  <scratch_subdir>  (905) 
/opt/xchem-fragalysis-2/maxwin/BulkDock/SCRATCH/511020/C8679-P107

>  <fragmenstein_runtime>  (905) 
20.32262921333313

>  <fragmenstein_outcome>  (905) 
too moved

>  <fragmenstein_mode>  (905) 
expansion

>  <fragmenstein_error>  (905) 


$$$$
C8680-P80
     RDKit          3D

 28 30  0  0  0  0  0  0  0  0999 V2000
   -5.5174  -13.8523   22.3564 O   0  0  0  0  0  0  0  0  0  0  0  0
   -5.8017  -13.2001   23.3223 C   0  0  0  0  0  0  0  0  0  0  0  0
   -5.5782  -11.7932   23.6174 N   0  0  0  0  0  0  0  0  0  0  0  0
   -4.8861  -10.8067   22.9058 C   0  0  0  0  0  0  0  0  0  0  0  0
   -4.1621  -10.9144   21.7989 N   0  0  0  0  0  0  0  0  0  0  0  0
   -3.4315   -9.7257   21.5929 C   0  0  0  0  0  0  0  0  0  0  0  0
   -2.3308   -9.6054   20.5450 C   0  0  0  0  0  0  0  0  0  0  0  0
   -2.7135   -8.8418   19.4892 F   0  0  0  0  0  0  0  0  0  0  0  0
   -2.0010  -10.8286   20.0673 F   0  0  0  0  0  0  0  0  0  0  0  0
   -1.2273   -9.0393   21.0899 F   0  0  0  0  0  0  0  0  0  0  0  0
   -3.7903   -8.8582   22.6044 C   0  0  0  0  0  0  0  0  0  0  0  0
   -4.7310   -9.5153   23.3707 N   0  0  0  0  0  0  0  0  0  0  0  0
   -6.4280  -14.0566   24.4980 C   0  0  0  0  0  0  0  0  0  0  0  0
   -5.7963  -15.4288   24.6842 C   0  0  0  0  0  0  0  0  0  0  0  0
   -6.3023  -16.2143   25.6490 C   0  0  0  0  0  0  0  0  0  0  0  0
   -7.3717  -15.7550   26.3967 N   0  0  0  0  0  0  0  0  0  0  0  0
   -8.0510  -16.3563   27.4277 C   0  0  0  0  0  0  0  0  0  0  0  0
   -9.0573  -15.4809   27.7499 C   0  0  0  0  0  0  0  0  0  0  0  0
   -8.9834  -14.3481   26.9723 N   0  0  0  0  0  0  0  0  0  0  0  0
   -7.9437  -14.4991   26.1690 C   0  0  0  0  0  0  0  0  0  0  0  0
   -7.4328  -13.6238   25.2190 N   0  0  0  0  0  0  0  0  0  0  0  0
   -6.0271  -11.5641   24.4982 H   0  0  0  0  0  0  0  0  0  0  0  0
   -3.4611   -7.8740   22.8857 H   0  0  0  0  0  0  0  0  0  0  0  0
   -5.1804   -9.1434   24.1951 H   0  0  0  0  0  0  0  0  0  0  0  0
   -4.9712  -15.7167   24.0438 H   0  0  0  0  0  0  0  0  0  0  0  0
   -5.9163  -17.2010   25.8714 H   0  0  0  0  0  0  0  0  0  0  0  0
   -7.7696  -17.3196   27.8269 H   0  0  0  0  0  0  0  0  0  0  0  0
   -9.8253  -15.5896   28.5049 H   0  0  0  0  0  0  0  0  0  0  0  0
  1  2  2  0
  2  3  1  0
  3  4  1  0
  4  5  2  0
  5  6  1  0
  6  7  1  0
  7  8  1  0
  7  9  1  0
  7 10  1  0
  6 11  2  0
 11 12  1  0
  2 13  1  0
 13 14  1  0
 14 15  2  0
 15 16  1  0
 16 17  1  0
 17 18  2  0
 18 19  1  0
 19 20  2  0
 20 21  1  0
 12  4  1  0
 21 13  2  0
 20 16  1  0
  3 22  1  0
 11 23  1  0
 12 24  1  0
 14 25  1  0
 15 26  1  0
 17 27  1  0
 18 28  1  0
M  END
>  <Energy>  (906) 
109.87402806097535

>  <compound_id>  (906) 
8680

>  <target_id>  (906) 
1

>  <reference_id>  (906) 
80

>  <inspiration_ids>  (906) 
[80, 107]

>  <energy_score>  (906) 
-18.9882910632802

>  <distance_score>  (906) 
14.364049931088545

>  <path>  (906) 
/opt/xchem-fragalysis-2/maxwin/BulkDock/SCRATCH/511020/C8680-P80/C8680-P80.minimised.mol

>  <scratch_subdir>  (906) 
/opt/xchem-fragalysis-2/maxwin/BulkDock/SCRATCH/511020/C8680-P80

>  <fragmenstein_runtime>  (906) 
17.05692720413208

>  <fragmenstein_outcome>  (906) 
too moved

>  <fragmenstein_mode>  (906) 
expansion

>  <fragmenstein_error>  (906) 


$$$$
C8680-P107
     RDKit          3D

 28 30  0  0  0  0  0  0  0  0999 V2000
   -0.5236   -8.2035   17.5959 O   0  0  0  0  0  0  0  0  0  0  0  0
   -0.0662   -8.6076   18.6140 C   0  0  0  0  0  0  0  0  0  0  0  0
    1.3777   -8.8351   19.0142 N   0  0  0  0  0  0  0  0  0  0  0  0
    2.5797   -8.7257   18.2596 C   0  0  0  0  0  0  0  0  0  0  0  0
    3.9639   -8.9442   18.3715 N   0  0  0  0  0  0  0  0  0  0  0  0
    5.0909   -7.7007   18.2968 C   0  0  0  0  0  0  0  0  0  0  0  0
    6.0322   -6.5220   18.1930 C   0  0  0  0  0  0  0  0  0  0  0  0
    7.1030   -6.4968   19.0194 F   0  0  0  0  0  0  0  0  0  0  0  0
    5.3649   -5.4060   18.5194 F   0  0  0  0  0  0  0  0  0  0  0  0
    6.5005   -6.3459   16.9237 F   0  0  0  0  0  0  0  0  0  0  0  0
    4.1939   -7.0527   17.5633 C   0  0  0  0  0  0  0  0  0  0  0  0
    2.7405   -8.0819   17.1683 N   0  0  0  0  0  0  0  0  0  0  0  0
   -1.3906   -9.1170   19.7218 C   0  0  0  0  0  0  0  0  0  0  0  0
   -2.4072  -10.0042   18.9463 C   0  0  0  0  0  0  0  0  0  0  0  0
   -3.4444  -10.5645   19.5861 C   0  0  0  0  0  0  0  0  0  0  0  0
   -3.6316  -10.2677   20.9136 N   0  0  0  0  0  0  0  0  0  0  0  0
   -4.6550  -10.6418   21.7582 C   0  0  0  0  0  0  0  0  0  0  0  0
   -4.3861  -10.0167   22.9467 C   0  0  0  0  0  0  0  0  0  0  0  0
   -3.1712   -9.3526   22.8622 N   0  0  0  0  0  0  0  0  0  0  0  0
   -2.7338   -9.4435   21.6054 C   0  0  0  0  0  0  0  0  0  0  0  0
   -1.5560   -8.9340   21.0212 N   0  0  0  0  0  0  0  0  0  0  0  0
    1.4052   -9.2692   19.9281 H   0  0  0  0  0  0  0  0  0  0  0  0
    4.4045   -6.3405   16.7179 H   0  0  0  0  0  0  0  0  0  0  0  0
    2.0596   -7.7953   16.4657 H   0  0  0  0  0  0  0  0  0  0  0  0
   -2.2114  -10.1807   17.9048 H   0  0  0  0  0  0  0  0  0  0  0  0
   -4.1666  -11.2069   19.0989 H   0  0  0  0  0  0  0  0  0  0  0  0
   -5.4725  -11.2673   21.4296 H   0  0  0  0  0  0  0  0  0  0  0  0
   -4.9589  -10.0285   23.8657 H   0  0  0  0  0  0  0  0  0  0  0  0
  1  2  2  0
  2  3  1  0
  3  4  1  0
  4  5  2  0
  5  6  1  0
  6  7  1  0
  7  8  1  0
  7  9  1  0
  7 10  1  0
  6 11  2  0
 11 12  1  0
  2 13  1  0
 13 14  1  0
 14 15  2  0
 15 16  1  0
 16 17  1  0
 17 18  2  0
 18 19  1  0
 19 20  2  0
 20 21  1  0
 12  4  1  0
 21 13  2  0
 20 16  1  0
  3 22  1  0
 11 23  1  0
 12 24  1  0
 14 25  1  0
 15 26  1  0
 17 27  1  0
 18 28  1  0
M  END
>  <Energy>  (907) 
372.41615474358196

>  <compound_id>  (907) 
8680

>  <target_id>  (907) 
1

>  <reference_id>  (907) 
107

>  <inspiration_ids>  (907) 
[80, 107]

>  <energy_score>  (907) 
243.55383561932274

>  <distance_score>  (907) 
16.642174731885287

>  <path>  (907) 
/opt/xchem-fragalysis-2/maxwin/BulkDock/SCRATCH/511020/C8680-P107/C8680-P107.minimised.mol

>  <scratch_subdir>  (907) 
/opt/xchem-fragalysis-2/maxwin/BulkDock/SCRATCH/511020/C8680-P107

>  <fragmenstein_runtime>  (907) 
11.088422060012817

>  <fragmenstein_outcome>  (907) 
too moved

>  <fragmenstein_mode>  (907) 
expansion

>  <fragmenstein_error>  (907) 


$$$$
C8676-P80
     RDKit          3D

 37 39  0  0  0  0  0  0  0  0999 V2000
   -3.3322   -5.7551   25.1684 C   0  0  0  0  0  0  0  0  0  0  0  0
   -2.4459   -6.9778   25.0179 C   0  0  0  0  0  0  0  0  0  0  0  0
   -2.6189   -7.6406   23.7380 N   0  0  0  0  0  0  0  0  0  0  0  0
   -1.8931   -7.3083   22.6183 C   0  0  0  0  0  0  0  0  0  0  0  0
   -2.2227   -8.0624   21.6023 N   0  0  0  0  0  0  0  0  0  0  0  0
   -3.1886   -8.9184   22.0796 C   0  0  0  0  0  0  0  0  0  0  0  0
   -3.4581   -8.7207   23.4346 C   0  0  0  0  0  0  0  0  0  0  0  0
   -4.3965   -9.4800   24.4796 C   0  0  0  0  0  0  0  0  0  0  0  0
   -5.9048   -9.9379   24.2630 N   0  0  0  0  0  0  0  0  0  0  0  0
   -6.0244   -8.5568   23.7595 C   0  0  0  0  0  0  0  0  0  0  0  0
   -6.4279  -10.5545   25.4804 C   0  0  0  0  0  0  0  0  0  0  0  0
   -7.0095  -10.0628   26.4177 O   0  0  0  0  0  0  0  0  0  0  0  0
   -6.3772  -12.1301   25.6425 C   0  0  0  0  0  0  0  0  0  0  0  0
   -5.1289  -12.8178   26.1176 C   0  0  0  0  0  0  0  0  0  0  0  0
   -5.2777  -14.0658   26.6094 C   0  0  0  0  0  0  0  0  0  0  0  0
   -6.5348  -14.6578   26.6393 N   0  0  0  0  0  0  0  0  0  0  0  0
   -6.9456  -15.8533   27.1802 C   0  0  0  0  0  0  0  0  0  0  0  0
   -8.3042  -15.8874   26.9803 C   0  0  0  0  0  0  0  0  0  0  0  0
   -8.7247  -14.7675   26.3040 N   0  0  0  0  0  0  0  0  0  0  0  0
   -7.6502  -14.0175   26.1101 C   0  0  0  0  0  0  0  0  0  0  0  0
   -7.5450  -12.7472   25.5842 N   0  0  0  0  0  0  0  0  0  0  0  0
   -3.1526   -5.2741   26.1349 H   0  0  0  0  0  0  0  0  0  0  0  0
   -4.3915   -6.0205   25.1137 H   0  0  0  0  0  0  0  0  0  0  0  0
   -3.1314   -5.0215   24.3804 H   0  0  0  0  0  0  0  0  0  0  0  0
   -2.6354   -7.7027   25.8142 H   0  0  0  0  0  0  0  0  0  0  0  0
   -1.3910   -6.6893   25.0969 H   0  0  0  0  0  0  0  0  0  0  0  0
   -1.1528   -6.5184   22.6042 H   0  0  0  0  0  0  0  0  0  0  0  0
   -3.6391   -9.6583   21.4266 H   0  0  0  0  0  0  0  0  0  0  0  0
   -4.3603   -8.9557   25.4485 H   0  0  0  0  0  0  0  0  0  0  0  0
   -3.8774  -10.4205   24.6956 H   0  0  0  0  0  0  0  0  0  0  0  0
   -7.1157   -8.4308   23.6776 H   0  0  0  0  0  0  0  0  0  0  0  0
   -5.7066   -8.4320   22.7201 H   0  0  0  0  0  0  0  0  0  0  0  0
   -5.7761   -7.7476   24.4606 H   0  0  0  0  0  0  0  0  0  0  0  0
   -4.1897  -12.2876   26.1028 H   0  0  0  0  0  0  0  0  0  0  0  0
   -4.4557  -14.6369   27.0214 H   0  0  0  0  0  0  0  0  0  0  0  0
   -6.2631  -16.5356   27.6648 H   0  0  0  0  0  0  0  0  0  0  0  0
   -9.0043  -16.6539   27.2835 H   0  0  0  0  0  0  0  0  0  0  0  0
  1  2  1  0
  2  3  1  0
  3  4  1  0
  4  5  2  0
  5  6  1  0
  6  7  2  0
  7  8  1  0
  8  9  1  0
  9 10  1  0
  9 11  1  0
 11 12  2  0
 11 13  1  0
 13 14  1  0
 14 15  2  0
 15 16  1  0
 16 17  1  0
 17 18  2  0
 18 19  1  0
 19 20  2  0
 20 21  1  0
  7  3  1  0
 21 13  2  0
 20 16  1  0
  1 22  1  0
  1 23  1  0
  1 24  1  0
  2 25  1  0
  2 26  1  0
  4 27  1  0
  6 28  1  0
  8 29  1  0
  8 30  1  0
 10 31  1  0
 10 32  1  0
 10 33  1  0
 14 34  1  0
 15 35  1  0
 17 36  1  0
 18 37  1  0
M  END
>  <Energy>  (908) 
147.11380896162845

>  <compound_id>  (908) 
8676

>  <target_id>  (908) 
1

>  <reference_id>  (908) 
80

>  <inspiration_ids>  (908) 
[80, 107]

>  <energy_score>  (908) 
65.66627759124901

>  <distance_score>  (908) 
14.449994422824279

>  <path>  (908) 
/opt/xchem-fragalysis-2/maxwin/BulkDock/SCRATCH/511020/C8676-P80/C8676-P80.minimised.mol

>  <scratch_subdir>  (908) 
/opt/xchem-fragalysis-2/maxwin/BulkDock/SCRATCH/511020/C8676-P80

>  <fragmenstein_runtime>  (908) 
20.61662197113037

>  <fragmenstein_outcome>  (908) 
too moved

>  <fragmenstein_mode>  (908) 
expansion

>  <fragmenstein_error>  (908) 


$$$$
C8676-P107
     RDKit          3D

 37 39  0  0  0  0  0  0  0  0999 V2000
   -0.1392  -19.6934   12.6287 C   0  0  0  0  0  0  0  0  0  0  0  0
   -0.5680  -20.0509   14.0453 C   0  0  0  0  0  0  0  0  0  0  0  0
    0.4753  -20.0555   15.0592 N   0  0  0  0  0  0  0  0  0  0  0  0
    1.7293  -19.5186   14.9198 C   0  0  0  0  0  0  0  0  0  0  0  0
    2.4354  -19.6556   16.0085 N   0  0  0  0  0  0  0  0  0  0  0  0
    1.6225  -20.3570   16.8779 C   0  0  0  0  0  0  0  0  0  0  0  0
    0.3656  -20.6328   16.3352 C   0  0  0  0  0  0  0  0  0  0  0  0
   -0.9714  -21.3279   16.8833 C   0  0  0  0  0  0  0  0  0  0  0  0
   -1.1832  -22.8253   17.4545 N   0  0  0  0  0  0  0  0  0  0  0  0
   -0.3154  -23.1494   16.3095 C   0  0  0  0  0  0  0  0  0  0  0  0
   -0.9206  -22.8672   18.8851 C   0  0  0  0  0  0  0  0  0  0  0  0
    0.1002  -23.0902   19.4852 O   0  0  0  0  0  0  0  0  0  0  0  0
   -2.2028  -22.7056   19.8579 C   0  0  0  0  0  0  0  0  0  0  0  0
   -3.4992  -23.3507   19.4139 C   0  0  0  0  0  0  0  0  0  0  0  0
   -4.4416  -23.5442   20.3584 C   0  0  0  0  0  0  0  0  0  0  0  0
   -4.2078  -23.1250   21.6601 N   0  0  0  0  0  0  0  0  0  0  0  0
   -4.9545  -23.2980   22.7994 C   0  0  0  0  0  0  0  0  0  0  0  0
   -4.2126  -22.7239   23.8035 C   0  0  0  0  0  0  0  0  0  0  0  0
   -3.0664  -22.1617   23.3009 N   0  0  0  0  0  0  0  0  0  0  0  0
   -3.0428  -22.4469   22.0074 C   0  0  0  0  0  0  0  0  0  0  0  0
   -2.0425  -22.2353   21.0800 N   0  0  0  0  0  0  0  0  0  0  0  0
    0.2377  -18.6686   12.5664 H   0  0  0  0  0  0  0  0  0  0  0  0
   -0.9923  -19.7750   11.9475 H   0  0  0  0  0  0  0  0  0  0  0  0
    0.6452  -20.3686   12.2709 H   0  0  0  0  0  0  0  0  0  0  0  0
   -0.9941  -21.0579   14.0168 H   0  0  0  0  0  0  0  0  0  0  0  0
   -1.3421  -19.3590   14.3928 H   0  0  0  0  0  0  0  0  0  0  0  0
    2.0785  -19.0460   14.0124 H   0  0  0  0  0  0  0  0  0  0  0  0
    1.9969  -20.6384   17.8566 H   0  0  0  0  0  0  0  0  0  0  0  0
   -1.7327  -21.2479   16.0892 H   0  0  0  0  0  0  0  0  0  0  0  0
   -1.4050  -20.6700   17.6371 H   0  0  0  0  0  0  0  0  0  0  0  0
   -0.7015  -22.9037   15.3120 H   0  0  0  0  0  0  0  0  0  0  0  0
    0.7505  -22.9712   16.4924 H   0  0  0  0  0  0  0  0  0  0  0  0
   -0.3425  -24.2504   16.3012 H   0  0  0  0  0  0  0  0  0  0  0  0
   -3.5974  -23.6805   18.3891 H   0  0  0  0  0  0  0  0  0  0  0  0
   -5.3843  -24.0377   20.1587 H   0  0  0  0  0  0  0  0  0  0  0  0
   -5.8996  -23.8207   22.8008 H   0  0  0  0  0  0  0  0  0  0  0  0
   -4.4373  -22.6808   24.8607 H   0  0  0  0  0  0  0  0  0  0  0  0
  1  2  1  0
  2  3  1  0
  3  4  1  0
  4  5  2  0
  5  6  1  0
  6  7  2  0
  7  8  1  0
  8  9  1  0
  9 10  1  0
  9 11  1  0
 11 12  2  0
 11 13  1  0
 13 14  1  0
 14 15  2  0
 15 16  1  0
 16 17  1  0
 17 18  2  0
 18 19  1  0
 19 20  2  0
 20 21  1  0
  7  3  1  0
 21 13  2  0
 20 16  1  0
  1 22  1  0
  1 23  1  0
  1 24  1  0
  2 25  1  0
  2 26  1  0
  4 27  1  0
  6 28  1  0
  8 29  1  0
  8 30  1  0
 10 31  1  0
 10 32  1  0
 10 33  1  0
 14 34  1  0
 15 35  1  0
 17 36  1  0
 18 37  1  0
M  END
>  <Energy>  (909) 
152.04949032111926

>  <compound_id>  (909) 
8676

>  <target_id>  (909) 
1

>  <reference_id>  (909) 
107

>  <inspiration_ids>  (909) 
[80, 107]

>  <energy_score>  (909) 
70.60195895073724

>  <distance_score>  (909) 
16.317103372921398

>  <path>  (909) 
/opt/xchem-fragalysis-2/maxwin/BulkDock/SCRATCH/511020/C8676-P107/C8676-P107.minimised.mol

>  <scratch_subdir>  (909) 
/opt/xchem-fragalysis-2/maxwin/BulkDock/SCRATCH/511020/C8676-P107

>  <fragmenstein_runtime>  (909) 
20.277120113372803

>  <fragmenstein_outcome>  (909) 
too moved

>  <fragmenstein_mode>  (909) 
expansion

>  <fragmenstein_error>  (909) 


$$$$
C8681-P80
     RDKit          3D

 37 39  0  0  0  0  0  0  0  0999 V2000
   -3.7147  -10.7001   18.0902 C   0  0  0  0  0  0  0  0  0  0  0  0
   -2.6033  -10.5190   18.9912 N   0  0  0  0  0  0  0  0  0  0  0  0
   -2.3208   -9.2629   19.4718 C   0  0  0  0  0  0  0  0  0  0  0  0
   -1.6501   -9.4610   20.6461 C   0  0  0  0  0  0  0  0  0  0  0  0
   -1.5182  -10.7975   20.8768 N   0  0  0  0  0  0  0  0  0  0  0  0
   -1.9649  -11.4576   19.8041 C   0  0  0  0  0  0  0  0  0  0  0  0
   -2.2917  -12.9801   19.9257 C   0  0  0  0  0  0  0  0  0  0  0  0
   -1.7750  -14.6987   19.1894 C   0  0  0  0  0  0  0  0  0  0  0  0
   -2.4309  -16.0070   19.9144 N   0  0  0  0  0  0  0  0  0  0  0  0
   -3.5414  -16.8670   19.5210 C   0  0  0  0  0  0  0  0  0  0  0  0
   -4.2024  -16.8823   18.5232 O   0  0  0  0  0  0  0  0  0  0  0  0
   -3.9198  -17.8369   20.7363 C   0  0  0  0  0  0  0  0  0  0  0  0
   -3.2621  -19.1746   20.8795 C   0  0  0  0  0  0  0  0  0  0  0  0
   -3.3681  -19.7468   22.0962 C   0  0  0  0  0  0  0  0  0  0  0  0
   -4.0743  -19.0996   23.1046 N   0  0  0  0  0  0  0  0  0  0  0  0
   -4.1174  -19.3411   24.4565 C   0  0  0  0  0  0  0  0  0  0  0  0
   -4.8879  -18.3278   24.9817 C   0  0  0  0  0  0  0  0  0  0  0  0
   -5.3565  -17.5078   23.9851 N   0  0  0  0  0  0  0  0  0  0  0  0
   -4.8051  -17.9406   22.8612 C   0  0  0  0  0  0  0  0  0  0  0  0
   -4.7424  -17.3260   21.6343 N   0  0  0  0  0  0  0  0  0  0  0  0
   -1.9042  -13.9933   17.6719 C   0  0  0  0  0  0  0  0  0  0  0  0
   -1.6021  -12.8317   17.5566 O   0  0  0  0  0  0  0  0  0  0  0  0
   -2.4012  -14.7285   16.6636 O   0  0  0  0  0  0  0  0  0  0  0  0
   -4.6226  -10.8133   18.6895 H   0  0  0  0  0  0  0  0  0  0  0  0
   -3.8103   -9.8180   17.4503 H   0  0  0  0  0  0  0  0  0  0  0  0
   -3.5727  -11.5666   17.4614 H   0  0  0  0  0  0  0  0  0  0  0  0
   -2.6887   -8.3823   18.9705 H   0  0  0  0  0  0  0  0  0  0  0  0
   -1.2637   -8.7446   21.3544 H   0  0  0  0  0  0  0  0  0  0  0  0
   -1.9470  -13.2221   20.8572 H   0  0  0  0  0  0  0  0  0  0  0  0
   -3.3126  -12.7222   20.1033 H   0  0  0  0  0  0  0  0  0  0  0  0
   -0.8477  -15.1695   19.1964 H   0  0  0  0  0  0  0  0  0  0  0  0
   -2.0556  -16.3345   20.7910 H   0  0  0  0  0  0  0  0  0  0  0  0
   -2.6973  -19.5804   20.0523 H   0  0  0  0  0  0  0  0  0  0  0  0
   -2.8757  -20.6765   22.3511 H   0  0  0  0  0  0  0  0  0  0  0  0
   -3.5947  -20.1696   24.9115 H   0  0  0  0  0  0  0  0  0  0  0  0
   -5.1479  -18.1582   26.0190 H   0  0  0  0  0  0  0  0  0  0  0  0
   -2.0895  -14.2442   15.8750 H   0  0  0  0  0  0  0  0  0  0  0  0
  1  2  1  0
  2  3  1  0
  3  4  2  0
  4  5  1  0
  5  6  2  0
  6  7  1  0
  7  8  1  0
  8  9  1  0
  9 10  1  0
 10 11  2  0
 10 12  1  0
 12 13  1  0
 13 14  2  0
 14 15  1  0
 15 16  1  0
 16 17  2  0
 17 18  1  0
 18 19  2  0
 19 20  1  0
  8 21  1  0
 21 22  2  0
 21 23  1  0
  6  2  1  0
 20 12  2  0
 19 15  1  0
  1 24  1  0
  1 25  1  0
  1 26  1  0
  3 27  1  0
  4 28  1  0
  7 29  1  0
  7 30  1  0
  8 31  1  0
  9 32  1  0
 13 33  1  0
 14 34  1  0
 16 35  1  0
 17 36  1  0
 23 37  1  0
M  END
>  <Energy>  (910) 
220.70031671507317

>  <compound_id>  (910) 
8681

>  <target_id>  (910) 
1

>  <reference_id>  (910) 
80

>  <inspiration_ids>  (910) 
[80, 107]

>  <energy_score>  (910) 
124.49107184479044

>  <distance_score>  (910) 
14.092655481677497

>  <path>  (910) 
/opt/xchem-fragalysis-2/maxwin/BulkDock/SCRATCH/511020/C8681-P80/C8681-P80.minimised.mol

>  <scratch_subdir>  (910) 
/opt/xchem-fragalysis-2/maxwin/BulkDock/SCRATCH/511020/C8681-P80

>  <fragmenstein_runtime>  (910) 
25.51820969581604

>  <fragmenstein_outcome>  (910) 
too moved

>  <fragmenstein_mode>  (910) 
expansion

>  <fragmenstein_error>  (910) 


$$$$
C8681-P107
     RDKit          3D

 37 39  0  0  0  0  0  0  0  0999 V2000
   -2.5650   -9.2655   18.9566 C   0  0  0  0  0  0  0  0  0  0  0  0
   -3.1998  -10.1609   18.0227 N   0  0  0  0  0  0  0  0  0  0  0  0
   -4.1471   -9.5632   17.2097 C   0  0  0  0  0  0  0  0  0  0  0  0
   -4.8685  -10.5727   16.6723 C   0  0  0  0  0  0  0  0  0  0  0  0
   -4.3605  -11.7630   17.0771 N   0  0  0  0  0  0  0  0  0  0  0  0
   -3.2577  -11.5664   17.8040 C   0  0  0  0  0  0  0  0  0  0  0  0
   -2.2297  -13.0598   18.1303 C   0  0  0  0  0  0  0  0  0  0  0  0
   -2.3936  -13.7894   19.9549 C   0  0  0  0  0  0  0  0  0  0  0  0
   -3.0896  -15.6199   20.5582 N   0  0  0  0  0  0  0  0  0  0  0  0
   -4.8239  -16.2051   21.1306 C   0  0  0  0  0  0  0  0  0  0  0  0
   -5.7462  -15.4253   21.0623 O   0  0  0  0  0  0  0  0  0  0  0  0
   -5.4532  -17.8932   22.0530 C   0  0  0  0  0  0  0  0  0  0  0  0
   -5.8435  -19.3223   21.3857 C   0  0  0  0  0  0  0  0  0  0  0  0
   -6.5600  -20.4429   21.8507 C   0  0  0  0  0  0  0  0  0  0  0  0
   -7.2557  -20.6731   23.1396 N   0  0  0  0  0  0  0  0  0  0  0  0
   -7.9100  -22.2989   24.0012 C   0  0  0  0  0  0  0  0  0  0  0  0
   -7.5290  -22.0816   26.0185 C   0  0  0  0  0  0  0  0  0  0  0  0
   -7.0858  -19.8865   25.9808 N   0  0  0  0  0  0  0  0  0  0  0  0
   -7.1121  -19.1205   24.2254 C   0  0  0  0  0  0  0  0  0  0  0  0
   -6.1582  -17.9294   23.4375 N   0  0  0  0  0  0  0  0  0  0  0  0
   -1.8567  -12.1628   20.2856 C   0  0  0  0  0  0  0  0  0  0  0  0
   -1.9185  -11.5076   21.2951 O   0  0  0  0  0  0  0  0  0  0  0  0
   -1.3953  -11.4797   19.3130 O   0  0  0  0  0  0  0  0  0  0  0  0
   -3.0696   -8.2926   18.9327 H   0  0  0  0  0  0  0  0  0  0  0  0
   -2.6970   -9.6195   19.9765 H   0  0  0  0  0  0  0  0  0  0  0  0
   -1.5384   -9.0922   18.6451 H   0  0  0  0  0  0  0  0  0  0  0  0
   -4.2764   -8.4923   17.1538 H   0  0  0  0  0  0  0  0  0  0  0  0
   -5.7379  -10.5151   16.0317 H   0  0  0  0  0  0  0  0  0  0  0  0
   -2.4892  -13.7459   17.3029 H   0  0  0  0  0  0  0  0  0  0  0  0
   -1.1968  -12.8453   17.8693 H   0  0  0  0  0  0  0  0  0  0  0  0
   -3.2157  -13.1072   20.2332 H   0  0  0  0  0  0  0  0  0  0  0  0
   -2.4467  -16.4169   20.5992 H   0  0  0  0  0  0  0  0  0  0  0  0
   -5.4288  -19.3694   20.3791 H   0  0  0  0  0  0  0  0  0  0  0  0
   -6.6337  -21.3159   21.2079 H   0  0  0  0  0  0  0  0  0  0  0  0
   -7.5592  -23.1178   23.3630 H   0  0  0  0  0  0  0  0  0  0  0  0
   -6.9223  -22.6771   26.7276 H   0  0  0  0  0  0  0  0  0  0  0  0
   -0.9649  -10.7054   19.7519 H   0  0  0  0  0  0  0  0  0  0  0  0
  1  2  1  0
  2  3  1  0
  3  4  2  0
  4  5  1  0
  5  6  2  0
  6  7  1  0
  7  8  1  0
  8  9  1  0
  9 10  1  0
 10 11  2  0
 10 12  1  0
 12 13  1  0
 13 14  2  0
 14 15  1  0
 15 16  1  0
 16 17  2  0
 17 18  1  0
 18 19  2  0
 19 20  1  0
  8 21  1  0
 21 22  2  0
 21 23  1  0
  6  2  1  0
 20 12  2  0
 19 15  1  0
  1 24  1  0
  1 25  1  0
  1 26  1  0
  3 27  1  0
  4 28  1  0
  7 29  1  0
  7 30  1  0
  8 31  1  0
  9 32  1  0
 13 33  1  0
 14 34  1  0
 16 35  1  0
 17 36  1  0
 23 37  1  0
M  END
>  <Energy>  (911) 
1416.6327549217285

>  <compound_id>  (911) 
8681

>  <target_id>  (911) 
1

>  <reference_id>  (911) 
107

>  <inspiration_ids>  (911) 
[80, 107]

>  <energy_score>  (911) 
1320.4235100514725

>  <distance_score>  (911) 
13.859142363221638

>  <path>  (911) 
/opt/xchem-fragalysis-2/maxwin/BulkDock/SCRATCH/511020/C8681-P107/C8681-P107.minimised.mol

>  <scratch_subdir>  (911) 
/opt/xchem-fragalysis-2/maxwin/BulkDock/SCRATCH/511020/C8681-P107

>  <fragmenstein_runtime>  (911) 
39.63747000694275

>  <fragmenstein_outcome>  (911) 
too moved

>  <fragmenstein_mode>  (911) 
expansion

>  <fragmenstein_error>  (911) 


$$$$
C8682-P80
     RDKit          3D

 37 39  0  0  0  0  0  0  0  0999 V2000
    6.7797   -8.9695   10.5329 C   0  0  0  0  0  0  0  0  0  0  0  0
    7.7490   -8.6777   11.6713 C   0  0  0  0  0  0  0  0  0  0  0  0
    7.3158   -8.5633   13.1982 C   0  0  0  0  0  0  0  0  0  0  0  0
    5.9010   -9.5509   13.2624 N   0  0  0  0  0  0  0  0  0  0  0  0
    4.6036   -9.4533   12.5262 C   0  0  0  0  0  0  0  0  0  0  0  0
    4.2001   -8.6095   11.7666 O   0  0  0  0  0  0  0  0  0  0  0  0
    3.4484  -10.7904   12.6091 C   0  0  0  0  0  0  0  0  0  0  0  0
    2.3295  -10.6046   11.5620 C   0  0  0  0  0  0  0  0  0  0  0  0
    1.2784  -11.4432   11.5122 C   0  0  0  0  0  0  0  0  0  0  0  0
    1.2108  -12.5057   12.3800 N   0  0  0  0  0  0  0  0  0  0  0  0
    0.2275  -13.4625   12.5253 C   0  0  0  0  0  0  0  0  0  0  0  0
    0.7233  -14.3479   13.4385 C   0  0  0  0  0  0  0  0  0  0  0  0
    1.9546  -13.9149   13.8481 N   0  0  0  0  0  0  0  0  0  0  0  0
    2.2469  -12.7473   13.2690 C   0  0  0  0  0  0  0  0  0  0  0  0
    3.3882  -11.8580   13.4030 N   0  0  0  0  0  0  0  0  0  0  0  0
    8.3679   -7.4601   14.3673 C   0  0  0  0  0  0  0  0  0  0  0  0
    9.5583   -7.6568   15.0621 N   0  0  0  0  0  0  0  0  0  0  0  0
   10.8123   -6.4339   15.2692 C   0  0  0  0  0  0  0  0  0  0  0  0
   11.9005   -5.9077   16.2939 C   0  0  0  0  0  0  0  0  0  0  0  0
   10.3008   -5.0476   14.4594 C   0  0  0  0  0  0  0  0  0  0  0  0
    8.5736   -5.6930   14.4317 N   0  0  0  0  0  0  0  0  0  0  0  0
    6.2949   -9.9429   10.6397 H   0  0  0  0  0  0  0  0  0  0  0  0
    7.3418   -9.0163    9.5917 H   0  0  0  0  0  0  0  0  0  0  0  0
    6.0422   -8.1791   10.3999 H   0  0  0  0  0  0  0  0  0  0  0  0
    8.2515   -7.7865   11.3632 H   0  0  0  0  0  0  0  0  0  0  0  0
    8.4602   -9.5101   11.5792 H   0  0  0  0  0  0  0  0  0  0  0  0
    7.8820   -9.4156   13.6237 H   0  0  0  0  0  0  0  0  0  0  0  0
    5.9395  -10.4387   13.7506 H   0  0  0  0  0  0  0  0  0  0  0  0
    2.4047   -9.7576   10.8903 H   0  0  0  0  0  0  0  0  0  0  0  0
    0.4646  -11.3180   10.8099 H   0  0  0  0  0  0  0  0  0  0  0  0
   -0.6954  -13.4278   11.9680 H   0  0  0  0  0  0  0  0  0  0  0  0
    0.2724  -15.2446   13.8401 H   0  0  0  0  0  0  0  0  0  0  0  0
   12.6675   -5.1946   15.9456 H   0  0  0  0  0  0  0  0  0  0  0  0
   12.4889   -6.7478   16.5752 H   0  0  0  0  0  0  0  0  0  0  0  0
   11.4334   -5.1674   16.9561 H   0  0  0  0  0  0  0  0  0  0  0  0
   10.3535   -4.0124   14.8036 H   0  0  0  0  0  0  0  0  0  0  0  0
    8.2808   -5.4837   15.3540 H   0  0  0  0  0  0  0  0  0  0  0  0
  1  2  1  0
  2  3  1  0
  3  4  1  0
  4  5  1  0
  5  6  2  0
  5  7  1  0
  7  8  1  0
  8  9  2  0
  9 10  1  0
 10 11  1  0
 11 12  2  0
 12 13  1  0
 13 14  2  0
 14 15  1  0
  3 16  1  0
 16 17  2  0
 17 18  1  0
 18 19  1  0
 18 20  2  0
 20 21  1  0
 15  7  2  0
 21 16  1  0
 14 10  1  0
  1 22  1  0
  1 23  1  0
  1 24  1  0
  2 25  1  0
  2 26  1  0
  3 27  1  0
  4 28  1  0
  8 29  1  0
  9 30  1  0
 11 31  1  0
 12 32  1  0
 19 33  1  0
 19 34  1  0
 19 35  1  0
 20 36  1  0
 21 37  1  0
M  END
>  <Energy>  (912) 
431.45023161511523

>  <compound_id>  (912) 
8682

>  <target_id>  (912) 
1

>  <reference_id>  (912) 
80

>  <inspiration_ids>  (912) 
[80, 107]

>  <energy_score>  (912) 
362.1294560566083

>  <distance_score>  (912) 
20.78414220684666

>  <path>  (912) 
/opt/xchem-fragalysis-2/maxwin/BulkDock/SCRATCH/511020/C8682-P80/C8682-P80.minimised.mol

>  <scratch_subdir>  (912) 
/opt/xchem-fragalysis-2/maxwin/BulkDock/SCRATCH/511020/C8682-P80

>  <fragmenstein_runtime>  (912) 
22.32840132713318

>  <fragmenstein_outcome>  (912) 
too moved

>  <fragmenstein_mode>  (912) 
expansion

>  <fragmenstein_error>  (912) 


$$$$
C8682-P107
     RDKit          3D

 37 39  0  0  0  0  0  0  0  0999 V2000
   -1.5982  -18.6053   16.4084 C   0  0  0  0  0  0  0  0  0  0  0  0
   -2.1158  -18.0441   17.7302 C   0  0  0  0  0  0  0  0  0  0  0  0
   -1.0309  -17.9519   18.8366 C   0  0  0  0  0  0  0  0  0  0  0  0
   -1.6794  -17.8878   20.1908 N   0  0  0  0  0  0  0  0  0  0  0  0
   -2.7921  -18.6607   20.7601 C   0  0  0  0  0  0  0  0  0  0  0  0
   -3.5122  -19.4807   20.2571 O   0  0  0  0  0  0  0  0  0  0  0  0
   -3.2389  -18.3915   22.2374 C   0  0  0  0  0  0  0  0  0  0  0  0
   -4.3765  -17.4103   22.3828 C   0  0  0  0  0  0  0  0  0  0  0  0
   -4.9904  -17.3675   23.5784 C   0  0  0  0  0  0  0  0  0  0  0  0
   -4.5482  -18.1873   24.6042 N   0  0  0  0  0  0  0  0  0  0  0  0
   -4.9962  -18.3010   25.8995 C   0  0  0  0  0  0  0  0  0  0  0  0
   -4.2214  -19.2860   26.4598 C   0  0  0  0  0  0  0  0  0  0  0  0
   -3.3189  -19.7689   25.5417 N   0  0  0  0  0  0  0  0  0  0  0  0
   -3.4890  -19.0760   24.4267 C   0  0  0  0  0  0  0  0  0  0  0  0
   -2.8244  -19.1628   23.2156 N   0  0  0  0  0  0  0  0  0  0  0  0
    0.0860  -16.9419   18.4413 C   0  0  0  0  0  0  0  0  0  0  0  0
    1.3906  -17.1328   18.5922 N   0  0  0  0  0  0  0  0  0  0  0  0
    2.0654  -16.2431   17.7752 C   0  0  0  0  0  0  0  0  0  0  0  0
    3.5495  -16.2376   17.6936 C   0  0  0  0  0  0  0  0  0  0  0  0
    1.1439  -15.5143   17.0704 C   0  0  0  0  0  0  0  0  0  0  0  0
   -0.0855  -15.8869   17.5531 N   0  0  0  0  0  0  0  0  0  0  0  0
   -0.8515  -17.9568   15.9438 H   0  0  0  0  0  0  0  0  0  0  0  0
   -1.1517  -19.5942   16.5539 H   0  0  0  0  0  0  0  0  0  0  0  0
   -2.4265  -18.7125   15.7002 H   0  0  0  0  0  0  0  0  0  0  0  0
   -2.9259  -18.7078   18.0461 H   0  0  0  0  0  0  0  0  0  0  0  0
   -2.5836  -17.0660   17.5659 H   0  0  0  0  0  0  0  0  0  0  0  0
   -0.5297  -18.9300   18.8633 H   0  0  0  0  0  0  0  0  0  0  0  0
   -1.2387  -17.3460   20.9289 H   0  0  0  0  0  0  0  0  0  0  0  0
   -4.6773  -16.8262   21.5238 H   0  0  0  0  0  0  0  0  0  0  0  0
   -5.8277  -16.7151   23.7876 H   0  0  0  0  0  0  0  0  0  0  0  0
   -5.7940  -17.6900   26.2935 H   0  0  0  0  0  0  0  0  0  0  0  0
   -4.2539  -19.6749   27.4700 H   0  0  0  0  0  0  0  0  0  0  0  0
    3.9585  -15.2650   17.9586 H   0  0  0  0  0  0  0  0  0  0  0  0
    3.9841  -16.9875   18.3594 H   0  0  0  0  0  0  0  0  0  0  0  0
    3.8602  -16.5208   16.6842 H   0  0  0  0  0  0  0  0  0  0  0  0
    1.2305  -14.7773   16.2921 H   0  0  0  0  0  0  0  0  0  0  0  0
   -0.9661  -15.5432   17.1987 H   0  0  0  0  0  0  0  0  0  0  0  0
  1  2  1  0
  2  3  1  0
  3  4  1  0
  4  5  1  0
  5  6  2  0
  5  7  1  0
  7  8  1  0
  8  9  2  0
  9 10  1  0
 10 11  1  0
 11 12  2  0
 12 13  1  0
 13 14  2  0
 14 15  1  0
  3 16  1  0
 16 17  2  0
 17 18  1  0
 18 19  1  0
 18 20  2  0
 20 21  1  0
 15  7  2  0
 21 16  1  0
 14 10  1  0
  1 22  1  0
  1 23  1  0
  1 24  1  0
  2 25  1  0
  2 26  1  0
  3 27  1  0
  4 28  1  0
  8 29  1  0
  9 30  1  0
 11 31  1  0
 12 32  1  0
 19 33  1  0
 19 34  1  0
 19 35  1  0
 20 36  1  0
 21 37  1  0
M  END
>  <Energy>  (913) 
76.747634001466096

>  <compound_id>  (913) 
8682

>  <target_id>  (913) 
1

>  <reference_id>  (913) 
107

>  <inspiration_ids>  (913) 
[80, 107]

>  <energy_score>  (913) 
7.42685844295778

>  <distance_score>  (913) 
14.295234954432738

>  <path>  (913) 
/opt/xchem-fragalysis-2/maxwin/BulkDock/SCRATCH/511020/C8682-P107/C8682-P107.minimised.mol

>  <scratch_subdir>  (913) 
/opt/xchem-fragalysis-2/maxwin/BulkDock/SCRATCH/511020/C8682-P107

>  <fragmenstein_runtime>  (913) 
43.44008445739746

>  <fragmenstein_outcome>  (913) 
too moved

>  <fragmenstein_mode>  (913) 
expansion

>  <fragmenstein_error>  (913) 


$$$$
C8683-P80
     RDKit          3D

 29 31  0  0  0  0  0  0  0  0999 V2000
   -3.2954  -14.6709   19.6926 F   0  0  0  0  0  0  0  0  0  0  0  0
   -3.9408  -14.3564   20.8448 C   0  0  0  0  0  0  0  0  0  0  0  0
   -5.2435  -14.6967   20.6661 F   0  0  0  0  0  0  0  0  0  0  0  0
   -3.8257  -12.9392   21.1496 N   0  0  0  0  0  0  0  0  0  0  0  0
   -3.1959  -11.9860   20.3774 C   0  0  0  0  0  0  0  0  0  0  0  0
   -3.4025  -10.7971   21.0245 C   0  0  0  0  0  0  0  0  0  0  0  0
   -4.1075  -11.0163   22.1965 N   0  0  0  0  0  0  0  0  0  0  0  0
   -4.3741  -12.3250   22.2680 C   0  0  0  0  0  0  0  0  0  0  0  0
   -4.9573  -13.0952   23.5222 C   0  0  0  0  0  0  0  0  0  0  0  0
   -6.2229  -13.8792   23.4449 N   0  0  0  0  0  0  0  0  0  0  0  0
   -6.8385  -14.4223   24.5962 C   0  0  0  0  0  0  0  0  0  0  0  0
   -8.3571  -14.5350   24.5977 C   0  0  0  0  0  0  0  0  0  0  0  0
   -8.9617  -14.9433   25.7245 C   0  0  0  0  0  0  0  0  0  0  0  0
   -8.1873  -15.3189   26.8058 N   0  0  0  0  0  0  0  0  0  0  0  0
   -8.5571  -15.8424   28.0217 C   0  0  0  0  0  0  0  0  0  0  0  0
   -7.3727  -16.1470   28.6493 C   0  0  0  0  0  0  0  0  0  0  0  0
   -6.3029  -15.7971   27.8618 N   0  0  0  0  0  0  0  0  0  0  0  0
   -6.7965  -15.2820   26.7504 C   0  0  0  0  0  0  0  0  0  0  0  0
   -6.1371  -14.8012   25.6404 N   0  0  0  0  0  0  0  0  0  0  0  0
   -3.5124  -14.9354   21.6677 H   0  0  0  0  0  0  0  0  0  0  0  0
   -2.6987  -12.2309   19.4476 H   0  0  0  0  0  0  0  0  0  0  0  0
   -3.0749   -9.8068   20.7323 H   0  0  0  0  0  0  0  0  0  0  0  0
   -5.0902  -12.3298   24.2978 H   0  0  0  0  0  0  0  0  0  0  0  0
   -4.1623  -13.7658   23.8713 H   0  0  0  0  0  0  0  0  0  0  0  0
   -6.8663  -13.4498   22.7870 H   0  0  0  0  0  0  0  0  0  0  0  0
   -8.8992  -14.2386   23.7105 H   0  0  0  0  0  0  0  0  0  0  0  0
  -10.0344  -15.0115   25.8274 H   0  0  0  0  0  0  0  0  0  0  0  0
   -9.5896  -15.9692   28.3090 H   0  0  0  0  0  0  0  0  0  0  0  0
   -7.2146  -16.5988   29.6208 H   0  0  0  0  0  0  0  0  0  0  0  0
  1  2  1  0
  2  3  1  0
  2  4  1  0
  4  5  1  0
  5  6  2  0
  6  7  1  0
  7  8  2  0
  8  9  1  0
  9 10  1  0
 10 11  1  0
 11 12  1  0
 12 13  2  0
 13 14  1  0
 14 15  1  0
 15 16  2  0
 16 17  1  0
 17 18  2  0
 18 19  1  0
  8  4  1  0
 19 11  2  0
 18 14  1  0
  2 20  1  0
  5 21  1  0
  6 22  1  0
  9 23  1  0
  9 24  1  0
 10 25  1  0
 12 26  1  0
 13 27  1  0
 15 28  1  0
 16 29  1  0
M  END
>  <Energy>  (914) 
9.8615579801071451

>  <compound_id>  (914) 
8683

>  <target_id>  (914) 
1

>  <reference_id>  (914) 
80

>  <inspiration_ids>  (914) 
[80, 107]

>  <energy_score>  (914) 
-31.70797943607795

>  <distance_score>  (914) 
14.44463107941279

>  <path>  (914) 
/opt/xchem-fragalysis-2/maxwin/BulkDock/SCRATCH/511020/C8683-P80/C8683-P80.minimised.mol

>  <scratch_subdir>  (914) 
/opt/xchem-fragalysis-2/maxwin/BulkDock/SCRATCH/511020/C8683-P80

>  <fragmenstein_runtime>  (914) 
15.99691128730774

>  <fragmenstein_outcome>  (914) 
too moved

>  <fragmenstein_mode>  (914) 
expansion

>  <fragmenstein_error>  (914) 


$$$$
C8683-P107
     RDKit          3D

 29 31  0  0  0  0  0  0  0  0999 V2000
    3.1282  -15.4357   24.7462 F   0  0  0  0  0  0  0  0  0  0  0  0
    1.8178  -15.2785   25.0728 C   0  0  0  0  0  0  0  0  0  0  0  0
    1.3947  -16.4970   25.5076 F   0  0  0  0  0  0  0  0  0  0  0  0
    1.6209  -14.2654   26.0811 N   0  0  0  0  0  0  0  0  0  0  0  0
    2.5175  -13.2992   26.4423 C   0  0  0  0  0  0  0  0  0  0  0  0
    1.8111  -12.4711   27.2749 C   0  0  0  0  0  0  0  0  0  0  0  0
    0.5308  -12.9520   27.4769 N   0  0  0  0  0  0  0  0  0  0  0  0
    0.4448  -14.0904   26.7979 C   0  0  0  0  0  0  0  0  0  0  0  0
   -0.7049  -15.1463   26.7642 C   0  0  0  0  0  0  0  0  0  0  0  0
   -1.9884  -14.8509   27.4097 N   0  0  0  0  0  0  0  0  0  0  0  0
   -2.9882  -15.7449   27.7629 C   0  0  0  0  0  0  0  0  0  0  0  0
   -3.3476  -16.9668   26.9437 C   0  0  0  0  0  0  0  0  0  0  0  0
   -4.3988  -17.6926   27.3612 C   0  0  0  0  0  0  0  0  0  0  0  0
   -5.0516  -17.3185   28.5230 N   0  0  0  0  0  0  0  0  0  0  0  0
   -6.1346  -17.8623   29.1468 C   0  0  0  0  0  0  0  0  0  0  0  0
   -6.2227  -17.1994   30.3462 C   0  0  0  0  0  0  0  0  0  0  0  0
   -5.3496  -16.1546   30.3913 N   0  0  0  0  0  0  0  0  0  0  0  0
   -4.6460  -16.2334   29.2821 C   0  0  0  0  0  0  0  0  0  0  0  0
   -3.6356  -15.4261   28.8607 N   0  0  0  0  0  0  0  0  0  0  0  0
    1.2440  -14.9967   24.1892 H   0  0  0  0  0  0  0  0  0  0  0  0
    3.5325  -13.2904   26.0728 H   0  0  0  0  0  0  0  0  0  0  0  0
    2.1540  -11.5722   27.7690 H   0  0  0  0  0  0  0  0  0  0  0  0
   -0.2994  -16.0532   27.2296 H   0  0  0  0  0  0  0  0  0  0  0  0
   -0.9117  -15.3745   25.7122 H   0  0  0  0  0  0  0  0  0  0  0  0
   -1.8655  -14.1428   28.1347 H   0  0  0  0  0  0  0  0  0  0  0  0
   -2.7830  -17.1864   26.0500 H   0  0  0  0  0  0  0  0  0  0  0  0
   -4.7602  -18.5690   26.8416 H   0  0  0  0  0  0  0  0  0  0  0  0
   -6.6824  -18.6825   28.7250 H   0  0  0  0  0  0  0  0  0  0  0  0
   -6.8672  -17.3951   31.1864 H   0  0  0  0  0  0  0  0  0  0  0  0
  1  2  1  0
  2  3  1  0
  2  4  1  0
  4  5  1  0
  5  6  2  0
  6  7  1  0
  7  8  2  0
  8  9  1  0
  9 10  1  0
 10 11  1  0
 11 12  1  0
 12 13  2  0
 13 14  1  0
 14 15  1  0
 15 16  2  0
 16 17  1  0
 17 18  2  0
 18 19  1  0
  8  4  1  0
 19 11  2  0
 18 14  1  0
  2 20  1  0
  5 21  1  0
  6 22  1  0
  9 23  1  0
  9 24  1  0
 10 25  1  0
 12 26  1  0
 13 27  1  0
 15 28  1  0
 16 29  1  0
M  END
>  <Energy>  (915) 
11.717501838078297

>  <compound_id>  (915) 
8683

>  <target_id>  (915) 
1

>  <reference_id>  (915) 
107

>  <inspiration_ids>  (915) 
[80, 107]

>  <energy_score>  (915) 
-29.85203557810729

>  <distance_score>  (915) 
14.111474453685224

>  <path>  (915) 
/opt/xchem-fragalysis-2/maxwin/BulkDock/SCRATCH/511020/C8683-P107/C8683-P107.minimised.mol

>  <scratch_subdir>  (915) 
/opt/xchem-fragalysis-2/maxwin/BulkDock/SCRATCH/511020/C8683-P107

>  <fragmenstein_runtime>  (915) 
14.11294937133789

>  <fragmenstein_outcome>  (915) 
too moved

>  <fragmenstein_mode>  (915) 
expansion

>  <fragmenstein_error>  (915) 


$$$$
C8682-P80
     RDKit          3D

 37 39  0  0  0  0  0  0  0  0999 V2000
    6.7797   -8.9695   10.5329 C   0  0  0  0  0  0  0  0  0  0  0  0
    7.7490   -8.6777   11.6713 C   0  0  0  0  0  0  0  0  0  0  0  0
    7.3158   -8.5633   13.1982 C   0  0  0  0  0  0  0  0  0  0  0  0
    5.9010   -9.5509   13.2624 N   0  0  0  0  0  0  0  0  0  0  0  0
    4.6036   -9.4533   12.5262 C   0  0  0  0  0  0  0  0  0  0  0  0
    4.2001   -8.6095   11.7666 O   0  0  0  0  0  0  0  0  0  0  0  0
    3.4484  -10.7904   12.6091 C   0  0  0  0  0  0  0  0  0  0  0  0
    2.3295  -10.6046   11.5620 C   0  0  0  0  0  0  0  0  0  0  0  0
    1.2784  -11.4432   11.5122 C   0  0  0  0  0  0  0  0  0  0  0  0
    1.2108  -12.5057   12.3800 N   0  0  0  0  0  0  0  0  0  0  0  0
    0.2275  -13.4625   12.5253 C   0  0  0  0  0  0  0  0  0  0  0  0
    0.7233  -14.3479   13.4385 C   0  0  0  0  0  0  0  0  0  0  0  0
    1.9546  -13.9149   13.8481 N   0  0  0  0  0  0  0  0  0  0  0  0
    2.2469  -12.7473   13.2690 C   0  0  0  0  0  0  0  0  0  0  0  0
    3.3882  -11.8580   13.4030 N   0  0  0  0  0  0  0  0  0  0  0  0
    8.3679   -7.4601   14.3673 C   0  0  0  0  0  0  0  0  0  0  0  0
    9.5583   -7.6568   15.0621 N   0  0  0  0  0  0  0  0  0  0  0  0
   10.8123   -6.4339   15.2692 C   0  0  0  0  0  0  0  0  0  0  0  0
   11.9005   -5.9077   16.2939 C   0  0  0  0  0  0  0  0  0  0  0  0
   10.3008   -5.0476   14.4594 C   0  0  0  0  0  0  0  0  0  0  0  0
    8.5736   -5.6930   14.4317 N   0  0  0  0  0  0  0  0  0  0  0  0
    6.2949   -9.9429   10.6397 H   0  0  0  0  0  0  0  0  0  0  0  0
    7.3418   -9.0163    9.5917 H   0  0  0  0  0  0  0  0  0  0  0  0
    6.0422   -8.1791   10.3999 H   0  0  0  0  0  0  0  0  0  0  0  0
    8.2515   -7.7865   11.3632 H   0  0  0  0  0  0  0  0  0  0  0  0
    8.4602   -9.5101   11.5792 H   0  0  0  0  0  0  0  0  0  0  0  0
    7.8820   -9.4156   13.6237 H   0  0  0  0  0  0  0  0  0  0  0  0
    5.9395  -10.4387   13.7506 H   0  0  0  0  0  0  0  0  0  0  0  0
    2.4047   -9.7576   10.8903 H   0  0  0  0  0  0  0  0  0  0  0  0
    0.4646  -11.3180   10.8099 H   0  0  0  0  0  0  0  0  0  0  0  0
   -0.6954  -13.4278   11.9680 H   0  0  0  0  0  0  0  0  0  0  0  0
    0.2724  -15.2446   13.8401 H   0  0  0  0  0  0  0  0  0  0  0  0
   12.6675   -5.1946   15.9456 H   0  0  0  0  0  0  0  0  0  0  0  0
   12.4889   -6.7478   16.5752 H   0  0  0  0  0  0  0  0  0  0  0  0
   11.4334   -5.1674   16.9561 H   0  0  0  0  0  0  0  0  0  0  0  0
   10.3535   -4.0124   14.8036 H   0  0  0  0  0  0  0  0  0  0  0  0
    8.2808   -5.4837   15.3540 H   0  0  0  0  0  0  0  0  0  0  0  0
  1  2  1  0
  2  3  1  0
  3  4  1  0
  4  5  1  0
  5  6  2  0
  5  7  1  0
  7  8  1  0
  8  9  2  0
  9 10  1  0
 10 11  1  0
 11 12  2  0
 12 13  1  0
 13 14  2  0
 14 15  1  0
  3 16  1  0
 16 17  2  0
 17 18  1  0
 18 19  1  0
 18 20  2  0
 20 21  1  0
 15  7  2  0
 21 16  1  0
 14 10  1  0
  1 22  1  0
  1 23  1  0
  1 24  1  0
  2 25  1  0
  2 26  1  0
  3 27  1  0
  4 28  1  0
  8 29  1  0
  9 30  1  0
 11 31  1  0
 12 32  1  0
 19 33  1  0
 19 34  1  0
 19 35  1  0
 20 36  1  0
 21 37  1  0
M  END
>  <Energy>  (916) 
431.45023161511523

>  <compound_id>  (916) 
8682

>  <target_id>  (916) 
1

>  <reference_id>  (916) 
80

>  <inspiration_ids>  (916) 
[80, 107]

>  <energy_score>  (916) 
362.1294560566083

>  <distance_score>  (916) 
20.78414220684666

>  <path>  (916) 
/opt/xchem-fragalysis-2/maxwin/BulkDock/SCRATCH/511020/C8682-P80/C8682-P80.minimised.mol

>  <scratch_subdir>  (916) 
/opt/xchem-fragalysis-2/maxwin/BulkDock/SCRATCH/511020/C8682-P80

>  <fragmenstein_runtime>  (916) 
23.027193307876587

>  <fragmenstein_outcome>  (916) 
too moved

>  <fragmenstein_mode>  (916) 
expansion

>  <fragmenstein_error>  (916) 


$$$$
C8682-P107
     RDKit          3D

 37 39  0  0  0  0  0  0  0  0999 V2000
   -1.5982  -18.6053   16.4084 C   0  0  0  0  0  0  0  0  0  0  0  0
   -2.1158  -18.0441   17.7302 C   0  0  0  0  0  0  0  0  0  0  0  0
   -1.0309  -17.9519   18.8366 C   0  0  0  0  0  0  0  0  0  0  0  0
   -1.6794  -17.8878   20.1908 N   0  0  0  0  0  0  0  0  0  0  0  0
   -2.7921  -18.6607   20.7601 C   0  0  0  0  0  0  0  0  0  0  0  0
   -3.5122  -19.4807   20.2571 O   0  0  0  0  0  0  0  0  0  0  0  0
   -3.2389  -18.3915   22.2374 C   0  0  0  0  0  0  0  0  0  0  0  0
   -4.3765  -17.4103   22.3828 C   0  0  0  0  0  0  0  0  0  0  0  0
   -4.9904  -17.3675   23.5784 C   0  0  0  0  0  0  0  0  0  0  0  0
   -4.5482  -18.1873   24.6042 N   0  0  0  0  0  0  0  0  0  0  0  0
   -4.9962  -18.3010   25.8995 C   0  0  0  0  0  0  0  0  0  0  0  0
   -4.2214  -19.2860   26.4598 C   0  0  0  0  0  0  0  0  0  0  0  0
   -3.3189  -19.7689   25.5417 N   0  0  0  0  0  0  0  0  0  0  0  0
   -3.4890  -19.0760   24.4267 C   0  0  0  0  0  0  0  0  0  0  0  0
   -2.8244  -19.1628   23.2156 N   0  0  0  0  0  0  0  0  0  0  0  0
    0.0860  -16.9419   18.4413 C   0  0  0  0  0  0  0  0  0  0  0  0
    1.3906  -17.1328   18.5922 N   0  0  0  0  0  0  0  0  0  0  0  0
    2.0654  -16.2431   17.7752 C   0  0  0  0  0  0  0  0  0  0  0  0
    3.5495  -16.2376   17.6936 C   0  0  0  0  0  0  0  0  0  0  0  0
    1.1439  -15.5143   17.0704 C   0  0  0  0  0  0  0  0  0  0  0  0
   -0.0855  -15.8869   17.5531 N   0  0  0  0  0  0  0  0  0  0  0  0
   -0.8515  -17.9568   15.9438 H   0  0  0  0  0  0  0  0  0  0  0  0
   -1.1517  -19.5942   16.5539 H   0  0  0  0  0  0  0  0  0  0  0  0
   -2.4265  -18.7125   15.7002 H   0  0  0  0  0  0  0  0  0  0  0  0
   -2.9259  -18.7078   18.0461 H   0  0  0  0  0  0  0  0  0  0  0  0
   -2.5836  -17.0660   17.5659 H   0  0  0  0  0  0  0  0  0  0  0  0
   -0.5297  -18.9300   18.8633 H   0  0  0  0  0  0  0  0  0  0  0  0
   -1.2387  -17.3460   20.9289 H   0  0  0  0  0  0  0  0  0  0  0  0
   -4.6773  -16.8262   21.5238 H   0  0  0  0  0  0  0  0  0  0  0  0
   -5.8277  -16.7151   23.7876 H   0  0  0  0  0  0  0  0  0  0  0  0
   -5.7940  -17.6900   26.2935 H   0  0  0  0  0  0  0  0  0  0  0  0
   -4.2539  -19.6749   27.4700 H   0  0  0  0  0  0  0  0  0  0  0  0
    3.9585  -15.2650   17.9586 H   0  0  0  0  0  0  0  0  0  0  0  0
    3.9841  -16.9875   18.3594 H   0  0  0  0  0  0  0  0  0  0  0  0
    3.8602  -16.5208   16.6842 H   0  0  0  0  0  0  0  0  0  0  0  0
    1.2305  -14.7773   16.2921 H   0  0  0  0  0  0  0  0  0  0  0  0
   -0.9661  -15.5432   17.1987 H   0  0  0  0  0  0  0  0  0  0  0  0
  1  2  1  0
  2  3  1  0
  3  4  1  0
  4  5  1  0
  5  6  2  0
  5  7  1  0
  7  8  1  0
  8  9  2  0
  9 10  1  0
 10 11  1  0
 11 12  2  0
 12 13  1  0
 13 14  2  0
 14 15  1  0
  3 16  1  0
 16 17  2  0
 17 18  1  0
 18 19  1  0
 18 20  2  0
 20 21  1  0
 15  7  2  0
 21 16  1  0
 14 10  1  0
  1 22  1  0
  1 23  1  0
  1 24  1  0
  2 25  1  0
  2 26  1  0
  3 27  1  0
  4 28  1  0
  8 29  1  0
  9 30  1  0
 11 31  1  0
 12 32  1  0
 19 33  1  0
 19 34  1  0
 19 35  1  0
 20 36  1  0
 21 37  1  0
M  END
>  <Energy>  (917) 
76.747634001466096

>  <compound_id>  (917) 
8682

>  <target_id>  (917) 
1

>  <reference_id>  (917) 
107

>  <inspiration_ids>  (917) 
[80, 107]

>  <energy_score>  (917) 
7.42685844295778

>  <distance_score>  (917) 
14.295234954432738

>  <path>  (917) 
/opt/xchem-fragalysis-2/maxwin/BulkDock/SCRATCH/511020/C8682-P107/C8682-P107.minimised.mol

>  <scratch_subdir>  (917) 
/opt/xchem-fragalysis-2/maxwin/BulkDock/SCRATCH/511020/C8682-P107

>  <fragmenstein_runtime>  (917) 
44.11921811103821

>  <fragmenstein_outcome>  (917) 
too moved

>  <fragmenstein_mode>  (917) 
expansion

>  <fragmenstein_error>  (917) 


$$$$
C8684-P80
     RDKit          3D

 37 39  0  0  0  0  0  0  0  0999 V2000
   -2.2328  -14.5604   20.9255 C   0  0  0  0  0  0  0  0  0  0  0  0
   -2.4267  -14.6775   22.3836 N   0  0  0  0  0  0  0  0  0  0  0  0
   -1.9540  -13.9815   20.5551 C   0  0  0  0  0  0  0  0  0  0  0  0
   -2.2117  -12.1722   19.7073 C   0  0  0  0  0  0  0  0  0  0  0  0
   -2.6620  -10.8771   20.4145 C   0  0  0  0  0  0  0  0  0  0  0  0
   -1.7600   -9.7458   20.4015 N   0  0  0  0  0  0  0  0  0  0  0  0
   -0.9253   -9.3950   21.4174 C   0  0  0  0  0  0  0  0  0  0  0  0
   -0.0288   -8.5166   20.9001 C   0  0  0  0  0  0  0  0  0  0  0  0
   -0.3355   -8.2710   19.5776 N   0  0  0  0  0  0  0  0  0  0  0  0
   -1.4574   -8.9539   19.3323 C   0  0  0  0  0  0  0  0  0  0  0  0
   -3.8060  -15.7598   23.1312 C   0  0  0  0  0  0  0  0  0  0  0  0
   -4.6761  -16.3534   22.6297 O   0  0  0  0  0  0  0  0  0  0  0  0
   -3.9498  -15.8434   24.7568 C   0  0  0  0  0  0  0  0  0  0  0  0
   -2.9673  -15.4182   25.7995 C   0  0  0  0  0  0  0  0  0  0  0  0
   -3.2443  -15.7928   27.0688 C   0  0  0  0  0  0  0  0  0  0  0  0
   -4.4073  -16.4946   27.3718 N   0  0  0  0  0  0  0  0  0  0  0  0
   -4.8872  -16.9783   28.5628 C   0  0  0  0  0  0  0  0  0  0  0  0
   -6.0874  -17.5735   28.2558 C   0  0  0  0  0  0  0  0  0  0  0  0
   -6.3410  -17.4831   26.9100 N   0  0  0  0  0  0  0  0  0  0  0  0
   -5.3193  -16.8253   26.3880 C   0  0  0  0  0  0  0  0  0  0  0  0
   -5.0582  -16.4950   25.0911 N   0  0  0  0  0  0  0  0  0  0  0  0
   -3.0888  -15.4035   20.5202 H   0  0  0  0  0  0  0  0  0  0  0  0
   -3.1172  -13.2153   20.8919 H   0  0  0  0  0  0  0  0  0  0  0  0
   -1.7043  -15.6959   20.4738 H   0  0  0  0  0  0  0  0  0  0  0  0
   -1.3125  -13.0199   20.9205 H   0  0  0  0  0  0  0  0  0  0  0  0
   -1.7730  -14.5922   19.2947 H   0  0  0  0  0  0  0  0  0  0  0  0
   -2.8414  -12.2581   18.8136 H   0  0  0  0  0  0  0  0  0  0  0  0
   -1.2992  -11.9217   19.1771 H   0  0  0  0  0  0  0  0  0  0  0  0
   -3.5592  -10.5399   19.9221 H   0  0  0  0  0  0  0  0  0  0  0  0
   -2.9176  -10.9925   21.4380 H   0  0  0  0  0  0  0  0  0  0  0  0
   -0.9108   -9.8613   22.3632 H   0  0  0  0  0  0  0  0  0  0  0  0
    0.7762   -8.0510   21.4343 H   0  0  0  0  0  0  0  0  0  0  0  0
   -1.9879   -8.9923   18.3908 H   0  0  0  0  0  0  0  0  0  0  0  0
   -2.0590  -14.8961   25.5365 H   0  0  0  0  0  0  0  0  0  0  0  0
   -2.5849  -15.5651   27.8978 H   0  0  0  0  0  0  0  0  0  0  0  0
   -4.3584  -16.8573   29.4970 H   0  0  0  0  0  0  0  0  0  0  0  0
   -6.7739  -18.0609   28.9338 H   0  0  0  0  0  0  0  0  0  0  0  0
  1  2  1  0
  2  3  1  0
  3  4  1  0
  4  5  1  0
  5  6  1  0
  6  7  1  0
  7  8  2  0
  8  9  1  0
  9 10  2  0
  2 11  1  0
 11 12  2  0
 11 13  1  0
 13 14  1  0
 14 15  2  0
 15 16  1  0
 16 17  1  0
 17 18  2  0
 18 19  1  0
 19 20  2  0
 20 21  1  0
 10  6  1  0
 21 13  2  0
 20 16  1  0
  1 22  1  0
  1 23  1  0
  1 24  1  0
  3 25  1  0
  3 26  1  0
  4 27  1  0
  4 28  1  0
  5 29  1  0
  5 30  1  0
  7 31  1  0
  8 32  1  0
 10 33  1  0
 14 34  1  0
 15 35  1  0
 17 36  1  0
 18 37  1  0
M  END
>  <Energy>  (918) 
1117.3836935363265

>  <compound_id>  (918) 
8684

>  <target_id>  (918) 
1

>  <reference_id>  (918) 
80

>  <inspiration_ids>  (918) 
[80, 107]

>  <energy_score>  (918) 
1031.7466022475564

>  <distance_score>  (918) 
12.861293603633818

>  <path>  (918) 
/opt/xchem-fragalysis-2/maxwin/BulkDock/SCRATCH/511020/C8684-P80/C8684-P80.minimised.mol

>  <scratch_subdir>  (918) 
/opt/xchem-fragalysis-2/maxwin/BulkDock/SCRATCH/511020/C8684-P80

>  <fragmenstein_runtime>  (918) 
27.76570725440979

>  <fragmenstein_outcome>  (918) 
too moved

>  <fragmenstein_mode>  (918) 
expansion

>  <fragmenstein_error>  (918) 


$$$$
C8684-P107
     RDKit          3D

 37 39  0  0  0  0  0  0  0  0999 V2000
    2.0624   -5.3640   20.6283 C   0  0  0  0  0  0  0  0  0  0  0  0
    1.3801   -5.9654   21.4748 N   0  0  0  0  0  0  0  0  0  0  0  0
    2.9080   -5.2836   20.1510 C   0  0  0  0  0  0  0  0  0  0  0  0
    4.9296   -4.9004   19.4286 C   0  0  0  0  0  0  0  0  0  0  0  0
    7.0134   -4.9406   19.6340 C   0  0  0  0  0  0  0  0  0  0  0  0
    8.8654   -4.1521   19.4962 N   0  0  0  0  0  0  0  0  0  0  0  0
   10.3068   -4.6224   17.9593 C   0  0  0  0  0  0  0  0  0  0  0  0
   10.5007   -3.0935   16.8943 C   0  0  0  0  0  0  0  0  0  0  0  0
    9.0159   -1.8937   17.4999 N   0  0  0  0  0  0  0  0  0  0  0  0
    8.5816   -2.2020   19.3672 C   0  0  0  0  0  0  0  0  0  0  0  0
    0.6412   -7.5933   21.4815 C   0  0  0  0  0  0  0  0  0  0  0  0
    0.7537   -8.4980   20.7180 O   0  0  0  0  0  0  0  0  0  0  0  0
   -0.5434   -7.9992   22.6968 C   0  0  0  0  0  0  0  0  0  0  0  0
   -1.6621   -8.8572   22.0069 C   0  0  0  0  0  0  0  0  0  0  0  0
   -2.8534   -8.9795   22.6184 C   0  0  0  0  0  0  0  0  0  0  0  0
   -3.0183   -8.5155   23.9085 N   0  0  0  0  0  0  0  0  0  0  0  0
   -4.0221   -8.8100   24.8021 C   0  0  0  0  0  0  0  0  0  0  0  0
   -3.5884   -8.3035   25.9995 C   0  0  0  0  0  0  0  0  0  0  0  0
   -2.3563   -7.6946   25.8522 N   0  0  0  0  0  0  0  0  0  0  0  0
   -2.0018   -7.8050   24.5761 C   0  0  0  0  0  0  0  0  0  0  0  0
   -0.7415   -7.5368   23.9468 N   0  0  0  0  0  0  0  0  0  0  0  0
    1.5137   -6.2413   20.0461 H   0  0  0  0  0  0  0  0  0  0  0  0
    1.1297   -4.6805   20.3551 H   0  0  0  0  0  0  0  0  0  0  0  0
    1.9054   -4.5604   21.5148 H   0  0  0  0  0  0  0  0  0  0  0  0
    3.5715   -4.7237   20.9691 H   0  0  0  0  0  0  0  0  0  0  0  0
    3.1089   -6.3080   19.6260 H   0  0  0  0  0  0  0  0  0  0  0  0
    5.2532   -3.8736   19.8196 H   0  0  0  0  0  0  0  0  0  0  0  0
    4.9019   -5.2969   18.4003 H   0  0  0  0  0  0  0  0  0  0  0  0
    7.4301   -5.7430   20.3013 H   0  0  0  0  0  0  0  0  0  0  0  0
    6.8896   -5.4911   18.6611 H   0  0  0  0  0  0  0  0  0  0  0  0
   11.1803   -5.1070   18.4037 H   0  0  0  0  0  0  0  0  0  0  0  0
   11.0303   -2.8600   15.9760 H   0  0  0  0  0  0  0  0  0  0  0  0
    7.9279   -1.6556   20.0809 H   0  0  0  0  0  0  0  0  0  0  0  0
   -1.4525   -9.2742   21.0269 H   0  0  0  0  0  0  0  0  0  0  0  0
   -3.6648   -9.5514   22.1951 H   0  0  0  0  0  0  0  0  0  0  0  0
   -4.9036   -9.3669   24.5161 H   0  0  0  0  0  0  0  0  0  0  0  0
   -4.0822   -8.3393   26.9622 H   0  0  0  0  0  0  0  0  0  0  0  0
  1  2  1  0
  2  3  1  0
  3  4  1  0
  4  5  1  0
  5  6  1  0
  6  7  1  0
  7  8  2  0
  8  9  1  0
  9 10  2  0
  2 11  1  0
 11 12  2  0
 11 13  1  0
 13 14  1  0
 14 15  2  0
 15 16  1  0
 16 17  1  0
 17 18  2  0
 18 19  1  0
 19 20  2  0
 20 21  1  0
 10  6  1  0
 21 13  2  0
 20 16  1  0
  1 22  1  0
  1 23  1  0
  1 24  1  0
  3 25  1  0
  3 26  1  0
  4 27  1  0
  4 28  1  0
  5 29  1  0
  5 30  1  0
  7 31  1  0
  8 32  1  0
 10 33  1  0
 14 34  1  0
 15 35  1  0
 17 36  1  0
 18 37  1  0
M  END
>  <Energy>  (919) 
2105.6356608312249

>  <compound_id>  (919) 
8684

>  <target_id>  (919) 
1

>  <reference_id>  (919) 
107

>  <inspiration_ids>  (919) 
[80, 107]

>  <energy_score>  (919) 
2019.9985695424857

>  <distance_score>  (919) 
15.760366174614195

>  <path>  (919) 
/opt/xchem-fragalysis-2/maxwin/BulkDock/SCRATCH/511020/C8684-P107/C8684-P107.minimised.mol

>  <scratch_subdir>  (919) 
/opt/xchem-fragalysis-2/maxwin/BulkDock/SCRATCH/511020/C8684-P107

>  <fragmenstein_runtime>  (919) 
23.7790584564209

>  <fragmenstein_outcome>  (919) 
too moved

>  <fragmenstein_mode>  (919) 
expansion

>  <fragmenstein_error>  (919) 


$$$$
C8685-P80
     RDKit          3D

 38 41  0  0  0  0  0  0  0  0999 V2000
   -1.4497  -15.6466   19.3456 O   0  0  0  0  0  0  0  0  0  0  0  0
   -0.5798  -16.2257   20.0131 C   0  0  0  0  0  0  0  0  0  0  0  0
    1.1006  -15.8913   20.1189 N   0  0  0  0  0  0  0  0  0  0  0  0
    2.3032  -14.5508   19.0730 C   0  0  0  0  0  0  0  0  0  0  0  0
    3.7452  -13.1472   18.6232 C   0  0  0  0  0  0  0  0  0  0  0  0
    3.3662  -11.7391   17.5786 C   0  0  0  0  0  0  0  0  0  0  0  0
    3.5503   -9.9892   17.4717 C   0  0  0  0  0  0  0  0  0  0  0  0
    4.9275   -9.4036   18.3338 C   0  0  0  0  0  0  0  0  0  0  0  0
    5.2306   -7.5693   18.2911 C   0  0  0  0  0  0  0  0  0  0  0  0
    4.4628   -6.7678   17.6328 N   0  0  0  0  0  0  0  0  0  0  0  0
    5.0747   -5.9696   16.7406 C   0  0  0  0  0  0  0  0  0  0  0  0
    6.3477   -6.2332   16.9673 C   0  0  0  0  0  0  0  0  0  0  0  0
    6.3411   -6.7164   18.2432 N   0  0  0  0  0  0  0  0  0  0  0  0
    5.8147  -10.9074   19.0632 C   0  0  0  0  0  0  0  0  0  0  0  0
    5.0638  -12.5177   19.3827 C   0  0  0  0  0  0  0  0  0  0  0  0
   -1.2286  -17.5671   20.7313 C   0  0  0  0  0  0  0  0  0  0  0  0
   -2.7267  -17.7973   20.2473 C   0  0  0  0  0  0  0  0  0  0  0  0
   -3.4162  -18.8590   20.6917 C   0  0  0  0  0  0  0  0  0  0  0  0
   -2.7959  -19.7283   21.5587 N   0  0  0  0  0  0  0  0  0  0  0  0
   -3.3515  -20.7219   22.3299 C   0  0  0  0  0  0  0  0  0  0  0  0
   -2.3506  -21.1042   23.1836 C   0  0  0  0  0  0  0  0  0  0  0  0
   -1.2025  -20.3903   22.9264 N   0  0  0  0  0  0  0  0  0  0  0  0
   -1.4412  -19.5939   21.8893 C   0  0  0  0  0  0  0  0  0  0  0  0
   -0.6320  -18.5726   21.3441 N   0  0  0  0  0  0  0  0  0  0  0  0
    1.5022  -16.4680   20.7939 H   0  0  0  0  0  0  0  0  0  0  0  0
    2.8358  -15.2441   18.4183 H   0  0  0  0  0  0  0  0  0  0  0  0
    2.5801  -14.3700   20.1068 H   0  0  0  0  0  0  0  0  0  0  0  0
    3.7809  -11.8294   16.5515 H   0  0  0  0  0  0  0  0  0  0  0  0
    2.6860   -9.3450   17.6975 H   0  0  0  0  0  0  0  0  0  0  0  0
    4.5848   -5.4259   15.9456 H   0  0  0  0  0  0  0  0  0  0  0  0
    7.1508   -6.0185   16.3068 H   0  0  0  0  0  0  0  0  0  0  0  0
    7.0990   -6.9335   18.8539 H   0  0  0  0  0  0  0  0  0  0  0  0
    6.7898  -10.8014   19.5358 H   0  0  0  0  0  0  0  0  0  0  0  0
    5.5415  -13.0934   20.1606 H   0  0  0  0  0  0  0  0  0  0  0  0
   -3.1709  -17.0616   19.5910 H   0  0  0  0  0  0  0  0  0  0  0  0
   -4.4524  -19.0407   20.4386 H   0  0  0  0  0  0  0  0  0  0  0  0
   -4.3817  -21.0292   22.2264 H   0  0  0  0  0  0  0  0  0  0  0  0
   -2.3818  -21.8500   23.9676 H   0  0  0  0  0  0  0  0  0  0  0  0
  1  2  2  0
  2  3  1  0
  3  4  1  0
  4  5  1  0
  5  6  2  0
  6  7  1  0
  7  8  2  0
  8  9  1  0
  9 10  2  0
 10 11  1  0
 11 12  2  0
 12 13  1  0
  8 14  1  0
 14 15  2  0
  2 16  1  0
 16 17  1  0
 17 18  2  0
 18 19  1  0
 19 20  1  0
 20 21  2  0
 21 22  1  0
 22 23  2  0
 23 24  1  0
 15  5  1  0
 24 16  2  0
 13  9  1  0
 23 19  1  0
  3 25  1  0
  4 26  1  0
  4 27  1  0
  6 28  1  0
  7 29  1  0
 11 30  1  0
 12 31  1  0
 13 32  1  0
 14 33  1  0
 15 34  1  0
 17 35  1  0
 18 36  1  0
 20 37  1  0
 21 38  1  0
M  END
>  <Energy>  (920) 
798.12441498143153

>  <compound_id>  (920) 
8685

>  <target_id>  (920) 
1

>  <reference_id>  (920) 
80

>  <inspiration_ids>  (920) 
[80, 107]

>  <energy_score>  (920) 
711.2927580186038

>  <distance_score>  (920) 
12.42314954060643

>  <path>  (920) 
/opt/xchem-fragalysis-2/maxwin/BulkDock/SCRATCH/511020/C8685-P80/C8685-P80.minimised.mol

>  <scratch_subdir>  (920) 
/opt/xchem-fragalysis-2/maxwin/BulkDock/SCRATCH/511020/C8685-P80

>  <fragmenstein_runtime>  (920) 
29.29416060447693

>  <fragmenstein_outcome>  (920) 
too moved

>  <fragmenstein_mode>  (920) 
expansion

>  <fragmenstein_error>  (920) 


$$$$
C8685-P107
     RDKit          3D

 38 41  0  0  0  0  0  0  0  0999 V2000
   -3.3312  -16.9722   18.0783 O   0  0  0  0  0  0  0  0  0  0  0  0
   -2.7779  -16.5819   19.0799 C   0  0  0  0  0  0  0  0  0  0  0  0
   -1.7909  -15.3534   19.2900 N   0  0  0  0  0  0  0  0  0  0  0  0
   -1.2297  -13.9660   18.0666 C   0  0  0  0  0  0  0  0  0  0  0  0
    0.7231  -13.9126   17.7148 C   0  0  0  0  0  0  0  0  0  0  0  0
    1.1292  -14.0060   16.4655 C   0  0  0  0  0  0  0  0  0  0  0  0
    1.8296  -12.7197   15.5834 C   0  0  0  0  0  0  0  0  0  0  0  0
    3.2103  -11.7217   16.2821 C   0  0  0  0  0  0  0  0  0  0  0  0
    3.9795  -11.5441   14.6302 C   0  0  0  0  0  0  0  0  0  0  0  0
    3.3176  -11.9780   13.5356 N   0  0  0  0  0  0  0  0  0  0  0  0
    3.9193  -11.6017   12.3657 C   0  0  0  0  0  0  0  0  0  0  0  0
    5.0449  -10.9147   12.6536 C   0  0  0  0  0  0  0  0  0  0  0  0
    5.0883  -10.9574   14.0173 N   0  0  0  0  0  0  0  0  0  0  0  0
    3.3695  -12.5246   17.8351 C   0  0  0  0  0  0  0  0  0  0  0  0
    2.2120  -13.9163   18.1803 C   0  0  0  0  0  0  0  0  0  0  0  0
   -3.2656  -17.4053   20.2957 C   0  0  0  0  0  0  0  0  0  0  0  0
   -2.8682  -18.8592   20.3993 C   0  0  0  0  0  0  0  0  0  0  0  0
   -3.7425  -19.6662   21.0350 C   0  0  0  0  0  0  0  0  0  0  0  0
   -4.8920  -19.1269   21.5988 N   0  0  0  0  0  0  0  0  0  0  0  0
   -5.9872  -19.7358   22.1508 C   0  0  0  0  0  0  0  0  0  0  0  0
   -6.8092  -18.7055   22.5467 C   0  0  0  0  0  0  0  0  0  0  0  0
   -6.2368  -17.4932   22.2842 N   0  0  0  0  0  0  0  0  0  0  0  0
   -5.1277  -17.7570   21.6182 C   0  0  0  0  0  0  0  0  0  0  0  0
   -4.3142  -16.9025   20.9227 N   0  0  0  0  0  0  0  0  0  0  0  0
   -1.5826  -15.2622   20.2559 H   0  0  0  0  0  0  0  0  0  0  0  0
   -1.8030  -14.1318   17.1168 H   0  0  0  0  0  0  0  0  0  0  0  0
   -1.6289  -12.9601   18.3448 H   0  0  0  0  0  0  0  0  0  0  0  0
    1.8145  -14.8605   16.4314 H   0  0  0  0  0  0  0  0  0  0  0  0
    1.7319  -12.7898   14.4905 H   0  0  0  0  0  0  0  0  0  0  0  0
    3.4950  -11.8514   11.4031 H   0  0  0  0  0  0  0  0  0  0  0  0
    5.8317  -10.4856   12.0520 H   0  0  0  0  0  0  0  0  0  0  0  0
    5.9943  -10.8944   14.4110 H   0  0  0  0  0  0  0  0  0  0  0  0
    4.1777  -12.5623   18.5523 H   0  0  0  0  0  0  0  0  0  0  0  0
    2.5880  -14.5749   18.9599 H   0  0  0  0  0  0  0  0  0  0  0  0
   -1.9801  -19.2008   19.8848 H   0  0  0  0  0  0  0  0  0  0  0  0
   -3.6115  -20.7394   21.0964 H   0  0  0  0  0  0  0  0  0  0  0  0
   -6.0928  -20.8105   22.1821 H   0  0  0  0  0  0  0  0  0  0  0  0
   -7.7886  -18.7631   22.9970 H   0  0  0  0  0  0  0  0  0  0  0  0
  1  2  2  0
  2  3  1  0
  3  4  1  0
  4  5  1  0
  5  6  2  0
  6  7  1  0
  7  8  2  0
  8  9  1  0
  9 10  2  0
 10 11  1  0
 11 12  2  0
 12 13  1  0
  8 14  1  0
 14 15  2  0
  2 16  1  0
 16 17  1  0
 17 18  2  0
 18 19  1  0
 19 20  1  0
 20 21  2  0
 21 22  1  0
 22 23  2  0
 23 24  1  0
 15  5  1  0
 24 16  2  0
 13  9  1  0
 23 19  1  0
  3 25  1  0
  4 26  1  0
  4 27  1  0
  6 28  1  0
  7 29  1  0
 11 30  1  0
 12 31  1  0
 13 32  1  0
 14 33  1  0
 15 34  1  0
 17 35  1  0
 18 36  1  0
 20 37  1  0
 21 38  1  0
M  END
>  <Energy>  (921) 
631.77548658629462

>  <compound_id>  (921) 
8685

>  <target_id>  (921) 
1

>  <reference_id>  (921) 
107

>  <inspiration_ids>  (921) 
[80, 107]

>  <energy_score>  (921) 
544.9438296234703

>  <distance_score>  (921) 
12.763589708808261

>  <path>  (921) 
/opt/xchem-fragalysis-2/maxwin/BulkDock/SCRATCH/511020/C8685-P107/C8685-P107.minimised.mol

>  <scratch_subdir>  (921) 
/opt/xchem-fragalysis-2/maxwin/BulkDock/SCRATCH/511020/C8685-P107

>  <fragmenstein_runtime>  (921) 
35.10640788078308

>  <fragmenstein_outcome>  (921) 
too moved

>  <fragmenstein_mode>  (921) 
expansion

>  <fragmenstein_error>  (921) 


$$$$
C8678-P80
     RDKit          3D

 31 33  0  0  0  0  0  0  0  0999 V2000
   -0.3442  -15.5686   21.8367 O   0  0  0  0  0  0  0  0  0  0  0  0
   -0.8154  -14.8081   22.6902 C   0  0  0  0  0  0  0  0  0  0  0  0
   -0.3100  -13.2715   23.2010 N   0  0  0  0  0  0  0  0  0  0  0  0
    1.1775  -11.8497   22.6202 C   0  0  0  0  0  0  0  0  0  0  0  0
    3.1851  -12.3227   22.3865 C   0  0  0  0  0  0  0  0  0  0  0  0
    4.4904  -12.5071   20.9155 C   0  0  0  0  0  0  0  0  0  0  0  0
    4.2177  -12.9875   19.6083 N   0  0  0  0  0  0  0  0  0  0  0  0
    5.2636  -12.9908   18.8098 C   0  0  0  0  0  0  0  0  0  0  0  0
    6.3171  -12.4499   19.4222 N   0  0  0  0  0  0  0  0  0  0  0  0
    5.9364  -12.1474   20.7009 C   0  0  0  0  0  0  0  0  0  0  0  0
    7.4396  -11.3882   21.7607 Br  0  0  0  0  0  0  0  0  0  0  0  0
   -2.4608  -15.3135   23.9786 C   0  0  0  0  0  0  0  0  0  0  0  0
   -2.5107  -16.2090   25.2674 C   0  0  0  0  0  0  0  0  0  0  0  0
   -2.8936  -17.1377   26.2957 C   0  0  0  0  0  0  0  0  0  0  0  0
   -4.3126  -17.1950   26.5258 N   0  0  0  0  0  0  0  0  0  0  0  0
   -5.1188  -17.7701   27.4520 C   0  0  0  0  0  0  0  0  0  0  0  0
   -6.2964  -17.1332   27.2409 C   0  0  0  0  0  0  0  0  0  0  0  0
   -6.3899  -16.3846   25.7325 N   0  0  0  0  0  0  0  0  0  0  0  0
   -5.1308  -16.1837   25.2979 C   0  0  0  0  0  0  0  0  0  0  0  0
   -4.0661  -15.3028   24.0696 N   0  0  0  0  0  0  0  0  0  0  0  0
   -0.8368  -12.9987   23.9313 H   0  0  0  0  0  0  0  0  0  0  0  0
    1.4975  -11.7092   23.6631 H   0  0  0  0  0  0  0  0  0  0  0  0
    0.6162  -10.9700   22.2108 H   0  0  0  0  0  0  0  0  0  0  0  0
    3.2940  -12.9830   23.2556 H   0  0  0  0  0  0  0  0  0  0  0  0
    3.6336  -11.3798   22.6684 H   0  0  0  0  0  0  0  0  0  0  0  0
    5.2932  -13.3622   17.7962 H   0  0  0  0  0  0  0  0  0  0  0  0
    7.2339  -12.3097   19.0260 H   0  0  0  0  0  0  0  0  0  0  0  0
   -2.2968  -15.2075   25.7761 H   0  0  0  0  0  0  0  0  0  0  0  0
   -2.3242  -17.3564   27.1942 H   0  0  0  0  0  0  0  0  0  0  0  0
   -4.7467  -18.3793   28.2632 H   0  0  0  0  0  0  0  0  0  0  0  0
   -7.1850  -17.0583   27.8682 H   0  0  0  0  0  0  0  0  0  0  0  0
  1  2  2  0
  2  3  1  0
  3  4  1  0
  4  5  1  0
  5  6  1  0
  6  7  1  0
  7  8  2  0
  8  9  1  0
  9 10  1  0
 10 11  1  0
  2 12  1  0
 12 13  1  0
 13 14  2  0
 14 15  1  0
 15 16  1  0
 16 17  2  0
 17 18  1  0
 18 19  2  0
 19 20  1  0
 10  6  2  0
 20 12  2  0
 19 15  1  0
  3 21  1  0
  4 22  1  0
  4 23  1  0
  5 24  1  0
  5 25  1  0
  8 26  1  0
  9 27  1  0
 13 28  1  0
 14 29  1  0
 16 30  1  0
 17 31  1  0
M  END
>  <Energy>  (922) 
849.0538264342099

>  <compound_id>  (922) 
8678

>  <target_id>  (922) 
1

>  <reference_id>  (922) 
80

>  <inspiration_ids>  (922) 
[80, 107]

>  <energy_score>  (922) 
768.9173443953838

>  <distance_score>  (922) 
12.591132389908475

>  <path>  (922) 
/opt/xchem-fragalysis-2/maxwin/BulkDock/SCRATCH/511020/C8678-P80/C8678-P80.minimised.mol

>  <scratch_subdir>  (922) 
/opt/xchem-fragalysis-2/maxwin/BulkDock/SCRATCH/511020/C8678-P80

>  <fragmenstein_runtime>  (922) 
23.32144260406494

>  <fragmenstein_outcome>  (922) 
too moved

>  <fragmenstein_mode>  (922) 
expansion

>  <fragmenstein_error>  (922) 


$$$$
C8678-P107
     RDKit          3D

 31 33  0  0  0  0  0  0  0  0999 V2000
   -0.6028  -14.4438   22.9808 O   0  0  0  0  0  0  0  0  0  0  0  0
   -0.3110  -14.2061   24.1187 C   0  0  0  0  0  0  0  0  0  0  0  0
    1.4122  -13.4796   24.4816 N   0  0  0  0  0  0  0  0  0  0  0  0
    2.8871  -13.1469   23.3872 C   0  0  0  0  0  0  0  0  0  0  0  0
    3.7014  -12.7198   21.6453 C   0  0  0  0  0  0  0  0  0  0  0  0
    5.3044  -12.5514   20.6336 C   0  0  0  0  0  0  0  0  0  0  0  0
    6.3263  -11.6217   21.1067 N   0  0  0  0  0  0  0  0  0  0  0  0
    7.3706  -11.6562   20.3125 C   0  0  0  0  0  0  0  0  0  0  0  0
    7.0682  -12.3788   19.2227 N   0  0  0  0  0  0  0  0  0  0  0  0
    5.8548  -13.0052   19.4165 C   0  0  0  0  0  0  0  0  0  0  0  0
    5.4344  -14.2290   18.0274 Br  0  0  0  0  0  0  0  0  0  0  0  0
   -1.8237  -14.8382   25.3754 C   0  0  0  0  0  0  0  0  0  0  0  0
   -1.8245  -15.0790   27.2725 C   0  0  0  0  0  0  0  0  0  0  0  0
   -2.1739  -16.0938   28.1007 C   0  0  0  0  0  0  0  0  0  0  0  0
   -2.6856  -17.2013   27.5298 N   0  0  0  0  0  0  0  0  0  0  0  0
   -3.1570  -18.3331   28.1389 C   0  0  0  0  0  0  0  0  0  0  0  0
   -3.5411  -19.1392   27.1136 C   0  0  0  0  0  0  0  0  0  0  0  0
   -3.2916  -18.5049   25.9256 N   0  0  0  0  0  0  0  0  0  0  0  0
   -2.7987  -17.2808   26.1313 C   0  0  0  0  0  0  0  0  0  0  0  0
   -2.5855  -16.0374   25.0342 N   0  0  0  0  0  0  0  0  0  0  0  0
    1.4681  -13.2571   25.4719 H   0  0  0  0  0  0  0  0  0  0  0  0
    2.6490  -12.1070   23.5436 H   0  0  0  0  0  0  0  0  0  0  0  0
    3.6063  -13.5398   24.0863 H   0  0  0  0  0  0  0  0  0  0  0  0
    3.2275  -13.3215   20.9174 H   0  0  0  0  0  0  0  0  0  0  0  0
    3.8614  -11.7002   21.9795 H   0  0  0  0  0  0  0  0  0  0  0  0
    8.3026  -11.1245   20.4478 H   0  0  0  0  0  0  0  0  0  0  0  0
    7.6537  -12.5240   18.4138 H   0  0  0  0  0  0  0  0  0  0  0  0
   -0.9934  -14.6440   27.7629 H   0  0  0  0  0  0  0  0  0  0  0  0
   -1.9582  -16.1118   29.1623 H   0  0  0  0  0  0  0  0  0  0  0  0
   -3.1837  -18.4533   29.2128 H   0  0  0  0  0  0  0  0  0  0  0  0
   -3.9698  -20.1319   27.1511 H   0  0  0  0  0  0  0  0  0  0  0  0
  1  2  2  0
  2  3  1  0
  3  4  1  0
  4  5  1  0
  5  6  1  0
  6  7  1  0
  7  8  2  0
  8  9  1  0
  9 10  1  0
 10 11  1  0
  2 12  1  0
 12 13  1  0
 13 14  2  0
 14 15  1  0
 15 16  1  0
 16 17  2  0
 17 18  1  0
 18 19  2  0
 19 20  1  0
 10  6  2  0
 20 12  2  0
 19 15  1  0
  3 21  1  0
  4 22  1  0
  4 23  1  0
  5 24  1  0
  5 25  1  0
  8 26  1  0
  9 27  1  0
 13 28  1  0
 14 29  1  0
 16 30  1  0
 17 31  1  0
M  END
>  <Energy>  (923) 
609.63303886758922

>  <compound_id>  (923) 
8678

>  <target_id>  (923) 
1

>  <reference_id>  (923) 
107

>  <inspiration_ids>  (923) 
[80, 107]

>  <energy_score>  (923) 
529.4965568287687

>  <distance_score>  (923) 
12.72485485082053

>  <path>  (923) 
/opt/xchem-fragalysis-2/maxwin/BulkDock/SCRATCH/511020/C8678-P107/C8678-P107.minimised.mol

>  <scratch_subdir>  (923) 
/opt/xchem-fragalysis-2/maxwin/BulkDock/SCRATCH/511020/C8678-P107

>  <fragmenstein_runtime>  (923) 
13.123389720916748

>  <fragmenstein_outcome>  (923) 
too moved

>  <fragmenstein_mode>  (923) 
expansion

>  <fragmenstein_error>  (923) 


$$$$
C8686-P80
     RDKit          3D

 32 34  0  0  0  0  0  0  0  0999 V2000
    4.1799  -10.2160   12.7221 C   0  0  0  0  0  0  0  0  0  0  0  0
    3.1124  -10.8153   14.0334 N   0  0  0  0  0  0  0  0  0  0  0  0
    4.0866  -11.2097   14.9519 C   0  0  0  0  0  0  0  0  0  0  0  0
    3.4144  -11.6058   16.0334 C   0  0  0  0  0  0  0  0  0  0  0  0
    1.9196  -12.5008   15.3696 N   0  0  0  0  0  0  0  0  0  0  0  0
    1.5570  -11.9497   14.0913 C   0  0  0  0  0  0  0  0  0  0  0  0
    0.1137  -12.7639   13.1595 C   0  0  0  0  0  0  0  0  0  0  0  0
   -0.6114  -14.4483   13.6149 C   0  0  0  0  0  0  0  0  0  0  0  0
   -2.1533  -14.9674   13.7227 N   0  0  0  0  0  0  0  0  0  0  0  0
   -2.7334  -15.8497   14.7546 C   0  0  0  0  0  0  0  0  0  0  0  0
   -2.0832  -17.1866   15.1022 C   0  0  0  0  0  0  0  0  0  0  0  0
   -2.6464  -17.9854   16.0340 C   0  0  0  0  0  0  0  0  0  0  0  0
   -3.8091  -17.5865   16.6668 N   0  0  0  0  0  0  0  0  0  0  0  0
   -4.5313  -18.1897   17.6754 C   0  0  0  0  0  0  0  0  0  0  0  0
   -5.6253  -17.3830   17.8618 C   0  0  0  0  0  0  0  0  0  0  0  0
   -5.5778  -16.3057   17.0008 N   0  0  0  0  0  0  0  0  0  0  0  0
   -4.4487  -16.4059   16.3030 C   0  0  0  0  0  0  0  0  0  0  0  0
   -3.8987  -15.5557   15.3385 N   0  0  0  0  0  0  0  0  0  0  0  0
    4.5359   -9.2774   13.1565 H   0  0  0  0  0  0  0  0  0  0  0  0
    4.9652  -10.9821   12.6793 H   0  0  0  0  0  0  0  0  0  0  0  0
    3.5925  -10.1709   11.7966 H   0  0  0  0  0  0  0  0  0  0  0  0
    5.0684  -10.9558   14.6371 H   0  0  0  0  0  0  0  0  0  0  0  0
    3.5489  -11.7218   17.1018 H   0  0  0  0  0  0  0  0  0  0  0  0
   -0.7276  -12.0719   13.1861 H   0  0  0  0  0  0  0  0  0  0  0  0
    0.4163  -12.8295   12.1066 H   0  0  0  0  0  0  0  0  0  0  0  0
   -0.1781  -15.1060   12.8512 H   0  0  0  0  0  0  0  0  0  0  0  0
   -0.2849  -14.7796   14.5908 H   0  0  0  0  0  0  0  0  0  0  0  0
   -2.8154  -14.2913   13.3628 H   0  0  0  0  0  0  0  0  0  0  0  0
   -1.1665  -17.4331   14.5823 H   0  0  0  0  0  0  0  0  0  0  0  0
   -2.2124  -18.9304   16.3313 H   0  0  0  0  0  0  0  0  0  0  0  0
   -4.2140  -19.1135   18.1348 H   0  0  0  0  0  0  0  0  0  0  0  0
   -6.4476  -17.5114   18.5528 H   0  0  0  0  0  0  0  0  0  0  0  0
  1  2  1  0
  2  3  1  0
  3  4  2  0
  4  5  1  0
  5  6  2  0
  6  7  1  0
  7  8  1  0
  8  9  1  0
  9 10  1  0
 10 11  1  0
 11 12  2  0
 12 13  1  0
 13 14  1  0
 14 15  2  0
 15 16  1  0
 16 17  2  0
 17 18  1  0
  6  2  1  0
 18 10  2  0
 17 13  1  0
  1 19  1  0
  1 20  1  0
  1 21  1  0
  3 22  1  0
  4 23  1  0
  7 24  1  0
  7 25  1  0
  8 26  1  0
  8 27  1  0
  9 28  1  0
 11 29  1  0
 12 30  1  0
 14 31  1  0
 15 32  1  0
M  END
>  <Energy>  (924) 
340.73771563980443

>  <compound_id>  (924) 
8686

>  <target_id>  (924) 
1

>  <reference_id>  (924) 
80

>  <inspiration_ids>  (924) 
[80, 107]

>  <energy_score>  (924) 
316.98866719387456

>  <distance_score>  (924) 
16.462292058640436

>  <path>  (924) 
/opt/xchem-fragalysis-2/maxwin/BulkDock/SCRATCH/511020/C8686-P80/C8686-P80.minimised.mol

>  <scratch_subdir>  (924) 
/opt/xchem-fragalysis-2/maxwin/BulkDock/SCRATCH/511020/C8686-P80

>  <fragmenstein_runtime>  (924) 
14.208945035934448

>  <fragmenstein_outcome>  (924) 
too moved

>  <fragmenstein_mode>  (924) 
expansion

>  <fragmenstein_error>  (924) 


$$$$
C8686-P107
     RDKit          3D

 32 34  0  0  0  0  0  0  0  0999 V2000
    4.2758   -7.2020   18.1117 C   0  0  0  0  0  0  0  0  0  0  0  0
    2.4795   -7.7617   18.3608 N   0  0  0  0  0  0  0  0  0  0  0  0
    2.0392   -8.2906   17.1865 C   0  0  0  0  0  0  0  0  0  0  0  0
    2.6716   -9.4013   17.6405 C   0  0  0  0  0  0  0  0  0  0  0  0
    2.1385   -9.6122   18.8189 N   0  0  0  0  0  0  0  0  0  0  0  0
    1.3129   -8.6928   19.2353 C   0  0  0  0  0  0  0  0  0  0  0  0
    0.0443   -9.3067   20.6600 C   0  0  0  0  0  0  0  0  0  0  0  0
   -1.3371  -10.8403   20.6456 C   0  0  0  0  0  0  0  0  0  0  0  0
   -1.9245  -12.7066   20.5022 N   0  0  0  0  0  0  0  0  0  0  0  0
   -2.1068  -14.4656   21.0564 C   0  0  0  0  0  0  0  0  0  0  0  0
   -1.2542  -15.3168   22.4244 C   0  0  0  0  0  0  0  0  0  0  0  0
   -1.7726  -16.3629   23.0830 C   0  0  0  0  0  0  0  0  0  0  0  0
   -2.9507  -16.8774   22.6343 N   0  0  0  0  0  0  0  0  0  0  0  0
   -3.7949  -17.7960   23.2090 C   0  0  0  0  0  0  0  0  0  0  0  0
   -4.8686  -17.8569   22.3590 C   0  0  0  0  0  0  0  0  0  0  0  0
   -4.6709  -17.0230   21.2802 N   0  0  0  0  0  0  0  0  0  0  0  0
   -3.4803  -16.4526   21.4302 C   0  0  0  0  0  0  0  0  0  0  0  0
   -2.8723  -15.4824   20.6208 N   0  0  0  0  0  0  0  0  0  0  0  0
    4.4600   -6.4206   18.8151 H   0  0  0  0  0  0  0  0  0  0  0  0
    4.8814   -8.0782   18.3714 H   0  0  0  0  0  0  0  0  0  0  0  0
    4.4624   -6.7479   17.1280 H   0  0  0  0  0  0  0  0  0  0  0  0
    1.0077   -8.1829   16.8605 H   0  0  0  0  0  0  0  0  0  0  0  0
    3.1960  -10.2072   17.1374 H   0  0  0  0  0  0  0  0  0  0  0  0
    0.7091   -9.5312   21.4758 H   0  0  0  0  0  0  0  0  0  0  0  0
   -0.5380   -8.4250   20.8854 H   0  0  0  0  0  0  0  0  0  0  0  0
   -1.8676  -10.5368   19.7247 H   0  0  0  0  0  0  0  0  0  0  0  0
   -2.0243  -10.4836   21.4076 H   0  0  0  0  0  0  0  0  0  0  0  0
   -2.4776  -12.6461   19.6441 H   0  0  0  0  0  0  0  0  0  0  0  0
   -0.3087  -14.8855   22.7498 H   0  0  0  0  0  0  0  0  0  0  0  0
   -1.3095  -16.8083   23.9534 H   0  0  0  0  0  0  0  0  0  0  0  0
   -3.5710  -18.2861   24.1449 H   0  0  0  0  0  0  0  0  0  0  0  0
   -5.7677  -18.4524   22.4484 H   0  0  0  0  0  0  0  0  0  0  0  0
  1  2  1  0
  2  3  1  0
  3  4  2  0
  4  5  1  0
  5  6  2  0
  6  7  1  0
  7  8  1  0
  8  9  1  0
  9 10  1  0
 10 11  1  0
 11 12  2  0
 12 13  1  0
 13 14  1  0
 14 15  2  0
 15 16  1  0
 16 17  2  0
 17 18  1  0
  6  2  1  0
 18 10  2  0
 17 13  1  0
  1 19  1  0
  1 20  1  0
  1 21  1  0
  3 22  1  0
  4 23  1  0
  7 24  1  0
  7 25  1  0
  8 26  1  0
  8 27  1  0
  9 28  1  0
 11 29  1  0
 12 30  1  0
 14 31  1  0
 15 32  1  0
M  END
>  <Energy>  (925) 
679.69782491282785

>  <compound_id>  (925) 
8686

>  <target_id>  (925) 
1

>  <reference_id>  (925) 
107

>  <inspiration_ids>  (925) 
[80, 107]

>  <energy_score>  (925) 
655.9487764669093

>  <distance_score>  (925) 
13.865782358090476

>  <path>  (925) 
/opt/xchem-fragalysis-2/maxwin/BulkDock/SCRATCH/511020/C8686-P107/C8686-P107.minimised.mol

>  <scratch_subdir>  (925) 
/opt/xchem-fragalysis-2/maxwin/BulkDock/SCRATCH/511020/C8686-P107

>  <fragmenstein_runtime>  (925) 
13.036624431610107

>  <fragmenstein_outcome>  (925) 
too moved

>  <fragmenstein_mode>  (925) 
expansion

>  <fragmenstein_error>  (925) 


$$$$
C8687-P80
     RDKit          3D

 38 41  0  0  0  0  0  0  0  0999 V2000
   -1.9464  -13.7543   12.1622 C   0  0  0  0  0  0  0  0  0  0  0  0
   -0.7153  -14.0225   12.6882 C   0  0  0  0  0  0  0  0  0  0  0  0
   -0.9160  -15.1091   13.5068 N   0  0  0  0  0  0  0  0  0  0  0  0
   -2.2554  -15.5148   13.4224 C   0  0  0  0  0  0  0  0  0  0  0  0
   -2.7645  -16.9292   13.8979 C   0  0  0  0  0  0  0  0  0  0  0  0
   -3.9667  -17.2171   14.7924 N   0  0  0  0  0  0  0  0  0  0  0  0
   -3.8863  -18.6242   15.3266 C   0  0  0  0  0  0  0  0  0  0  0  0
   -5.0172  -19.1364   16.3095 C   0  0  0  0  0  0  0  0  0  0  0  0
   -5.3821  -18.1747   17.3896 N   0  0  0  0  0  0  0  0  0  0  0  0
   -6.1732  -18.6425   18.5058 C   0  0  0  0  0  0  0  0  0  0  0  0
   -7.3019  -17.7839   19.0755 C   0  0  0  0  0  0  0  0  0  0  0  0
   -8.0563  -18.2728   20.0730 C   0  0  0  0  0  0  0  0  0  0  0  0
   -7.7751  -19.5236   20.5776 N   0  0  0  0  0  0  0  0  0  0  0  0
   -8.4360  -20.2564   21.5271 C   0  0  0  0  0  0  0  0  0  0  0  0
   -7.7121  -21.4167   21.6473 C   0  0  0  0  0  0  0  0  0  0  0  0
   -6.6283  -21.3976   20.8032 N   0  0  0  0  0  0  0  0  0  0  0  0
   -6.7077  -20.2739   20.1067 C   0  0  0  0  0  0  0  0  0  0  0  0
   -5.9349  -19.8271   19.0521 N   0  0  0  0  0  0  0  0  0  0  0  0
   -5.4753  -16.8048   16.8012 C   0  0  0  0  0  0  0  0  0  0  0  0
   -4.1939  -16.3668   15.9681 C   0  0  0  0  0  0  0  0  0  0  0  0
   -2.8889  -14.6468   12.6406 N   0  0  0  0  0  0  0  0  0  0  0  0
   -2.2244  -12.9645   11.4775 H   0  0  0  0  0  0  0  0  0  0  0  0
    0.2500  -13.5525   12.5867 H   0  0  0  0  0  0  0  0  0  0  0  0
   -0.1736  -15.5444   14.0425 H   0  0  0  0  0  0  0  0  0  0  0  0
   -1.8953  -17.4872   14.2588 H   0  0  0  0  0  0  0  0  0  0  0  0
   -3.0170  -17.4306   12.9515 H   0  0  0  0  0  0  0  0  0  0  0  0
   -3.8575  -19.3158   14.4755 H   0  0  0  0  0  0  0  0  0  0  0  0
   -2.9363  -18.7413   15.8627 H   0  0  0  0  0  0  0  0  0  0  0  0
   -4.6795  -20.0822   16.7479 H   0  0  0  0  0  0  0  0  0  0  0  0
   -5.9191  -19.3453   15.7211 H   0  0  0  0  0  0  0  0  0  0  0  0
   -7.4995  -16.8217   18.6278 H   0  0  0  0  0  0  0  0  0  0  0  0
   -8.8955  -17.7367   20.4946 H   0  0  0  0  0  0  0  0  0  0  0  0
   -9.3487  -19.9131   21.9880 H   0  0  0  0  0  0  0  0  0  0  0  0
   -7.9169  -22.2738   22.2765 H   0  0  0  0  0  0  0  0  0  0  0  0
   -6.3619  -16.7513   16.1568 H   0  0  0  0  0  0  0  0  0  0  0  0
   -5.6082  -16.0767   17.5951 H   0  0  0  0  0  0  0  0  0  0  0  0
   -4.3446  -15.3328   15.6422 H   0  0  0  0  0  0  0  0  0  0  0  0
   -3.3242  -16.3893   16.6322 H   0  0  0  0  0  0  0  0  0  0  0  0
  1  2  2  0
  2  3  1  0
  3  4  1  0
  4  5  1  0
  5  6  1  0
  6  7  1  0
  7  8  1  0
  8  9  1  0
  9 10  1  0
 10 11  1  0
 11 12  2  0
 12 13  1  0
 13 14  1  0
 14 15  2  0
 15 16  1  0
 16 17  2  0
 17 18  1  0
  9 19  1  0
 19 20  1  0
  4 21  2  0
 21  1  1  0
 20  6  1  0
 18 10  2  0
 17 13  1  0
  1 22  1  0
  2 23  1  0
  3 24  1  0
  5 25  1  0
  5 26  1  0
  7 27  1  0
  7 28  1  0
  8 29  1  0
  8 30  1  0
 11 31  1  0
 12 32  1  0
 14 33  1  0
 15 34  1  0
 19 35  1  0
 19 36  1  0
 20 37  1  0
 20 38  1  0
M  END
>  <Energy>  (926) 
96.124224788946137

>  <compound_id>  (926) 
8687

>  <target_id>  (926) 
1

>  <reference_id>  (926) 
80

>  <inspiration_ids>  (926) 
[80, 107]

>  <energy_score>  (926) 
-16.899849784364733

>  <distance_score>  (926) 
15.060903795698431

>  <path>  (926) 
/opt/xchem-fragalysis-2/maxwin/BulkDock/SCRATCH/511020/C8687-P80/C8687-P80.minimised.mol

>  <scratch_subdir>  (926) 
/opt/xchem-fragalysis-2/maxwin/BulkDock/SCRATCH/511020/C8687-P80

>  <fragmenstein_runtime>  (926) 
19.791865587234497

>  <fragmenstein_outcome>  (926) 
too moved

>  <fragmenstein_mode>  (926) 
expansion

>  <fragmenstein_error>  (926) 


$$$$
C8687-P107
     RDKit          3D

 38 41  0  0  0  0  0  0  0  0999 V2000
    4.3429   -4.3648   15.3438 C   0  0  0  0  0  0  0  0  0  0  0  0
    3.5780   -5.1733   14.5586 C   0  0  0  0  0  0  0  0  0  0  0  0
    3.6383   -6.3868   15.1740 N   0  0  0  0  0  0  0  0  0  0  0  0
    4.4311   -6.3043   16.4432 C   0  0  0  0  0  0  0  0  0  0  0  0
    3.8790   -7.3076   18.0276 C   0  0  0  0  0  0  0  0  0  0  0  0
    2.1465   -7.9308   18.8240 N   0  0  0  0  0  0  0  0  0  0  0  0
    0.8204   -7.7823   20.3133 C   0  0  0  0  0  0  0  0  0  0  0  0
   -0.0956   -8.8592   21.8899 C   0  0  0  0  0  0  0  0  0  0  0  0
    0.0969  -10.8046   21.9216 N   0  0  0  0  0  0  0  0  0  0  0  0
   -0.1941  -12.5898   22.6967 C   0  0  0  0  0  0  0  0  0  0  0  0
   -0.4884  -14.4057   22.4796 C   0  0  0  0  0  0  0  0  0  0  0  0
   -1.6461  -14.9232   23.4192 C   0  0  0  0  0  0  0  0  0  0  0  0
   -2.1670  -14.6080   25.0865 N   0  0  0  0  0  0  0  0  0  0  0  0
   -3.2350  -15.2672   25.6469 C   0  0  0  0  0  0  0  0  0  0  0  0
   -3.1060  -16.5329   25.1980 C   0  0  0  0  0  0  0  0  0  0  0  0
   -1.8862  -16.5204   24.4743 N   0  0  0  0  0  0  0  0  0  0  0  0
   -1.0669  -15.0303   24.5190 C   0  0  0  0  0  0  0  0  0  0  0  0
    0.1590  -13.9630   23.6784 N   0  0  0  0  0  0  0  0  0  0  0  0
    1.1590   -9.8415   20.7801 C   0  0  0  0  0  0  0  0  0  0  0  0
    1.8056   -9.2813   18.9562 C   0  0  0  0  0  0  0  0  0  0  0  0
    4.8759   -5.0759   16.4208 N   0  0  0  0  0  0  0  0  0  0  0  0
    4.5507   -3.3145   15.1907 H   0  0  0  0  0  0  0  0  0  0  0  0
    2.9952   -4.9978   13.6664 H   0  0  0  0  0  0  0  0  0  0  0  0
    3.0130   -7.1584   14.9838 H   0  0  0  0  0  0  0  0  0  0  0  0
    4.3777   -6.5672   18.6898 H   0  0  0  0  0  0  0  0  0  0  0  0
    4.7262   -8.0299   18.2648 H   0  0  0  0  0  0  0  0  0  0  0  0
   -0.0173   -7.7878   19.6165 H   0  0  0  0  0  0  0  0  0  0  0  0
    1.2201   -6.8919   20.8144 H   0  0  0  0  0  0  0  0  0  0  0  0
   -1.1786   -8.7297   21.7592 H   0  0  0  0  0  0  0  0  0  0  0  0
    0.2739   -8.4196   22.8185 H   0  0  0  0  0  0  0  0  0  0  0  0
    0.3235  -14.9935   22.0322 H   0  0  0  0  0  0  0  0  0  0  0  0
   -2.7852  -15.0096   23.2196 H   0  0  0  0  0  0  0  0  0  0  0  0
   -3.9360  -14.7646   26.2952 H   0  0  0  0  0  0  0  0  0  0  0  0
   -3.6923  -17.4313   25.3278 H   0  0  0  0  0  0  0  0  0  0  0  0
    0.1978   -9.4687   20.4359 H   0  0  0  0  0  0  0  0  0  0  0  0
    1.7768   -9.3030   21.4861 H   0  0  0  0  0  0  0  0  0  0  0  0
    2.4216   -9.8802   18.3063 H   0  0  0  0  0  0  0  0  0  0  0  0
    0.9546   -9.0854   18.2717 H   0  0  0  0  0  0  0  0  0  0  0  0
  1  2  2  0
  2  3  1  0
  3  4  1  0
  4  5  1  0
  5  6  1  0
  6  7  1  0
  7  8  1  0
  8  9  1  0
  9 10  1  0
 10 11  1  0
 11 12  2  0
 12 13  1  0
 13 14  1  0
 14 15  2  0
 15 16  1  0
 16 17  2  0
 17 18  1  0
  9 19  1  0
 19 20  1  0
  4 21  2  0
 21  1  1  0
 20  6  1  0
 18 10  2  0
 17 13  1  0
  1 22  1  0
  2 23  1  0
  3 24  1  0
  5 25  1  0
  5 26  1  0
  7 27  1  0
  7 28  1  0
  8 29  1  0
  8 30  1  0
 11 31  1  0
 12 32  1  0
 14 33  1  0
 15 34  1  0
 19 35  1  0
 19 36  1  0
 20 37  1  0
 20 38  1  0
M  END
>  <Energy>  (927) 
1965.1585607019522

>  <compound_id>  (927) 
8687

>  <target_id>  (927) 
1

>  <reference_id>  (927) 
107

>  <inspiration_ids>  (927) 
[80, 107]

>  <energy_score>  (927) 
1852.1344861286434

>  <distance_score>  (927) 
13.575365933883976

>  <path>  (927) 
/opt/xchem-fragalysis-2/maxwin/BulkDock/SCRATCH/511020/C8687-P107/C8687-P107.minimised.mol

>  <scratch_subdir>  (927) 
/opt/xchem-fragalysis-2/maxwin/BulkDock/SCRATCH/511020/C8687-P107

>  <fragmenstein_runtime>  (927) 
21.11362862586975

>  <fragmenstein_outcome>  (927) 
too moved

>  <fragmenstein_mode>  (927) 
expansion

>  <fragmenstein_error>  (927) 


$$$$
C8688-P80
     RDKit          3D

 33 36  0  0  0  0  0  0  0  0999 V2000
    5.7296  -17.3234   22.8507 C   0  0  0  0  0  0  0  0  0  0  0  0
    5.1311  -18.2548   22.0318 C   0  0  0  0  0  0  0  0  0  0  0  0
    3.4240  -18.1808   22.1194 S   0  0  0  0  0  0  0  0  0  0  0  0
    3.4760  -16.8506   23.1906 C   0  0  0  0  0  0  0  0  0  0  0  0
    2.1840  -16.1817   23.7668 C   0  0  0  0  0  0  0  0  0  0  0  0
    2.1265  -15.0396   24.5230 C   0  0  0  0  0  0  0  0  0  0  0  0
    0.7987  -14.9128   24.8564 N   0  0  0  0  0  0  0  0  0  0  0  0
    0.0996  -16.0160   24.3971 C   0  0  0  0  0  0  0  0  0  0  0  0
   -1.4151  -16.2770   24.7148 C   0  0  0  0  0  0  0  0  0  0  0  0
   -1.8084  -17.5472   25.3802 N   0  0  0  0  0  0  0  0  0  0  0  0
   -2.9751  -17.7861   26.1168 C   0  0  0  0  0  0  0  0  0  0  0  0
   -2.9224  -18.9160   27.1402 C   0  0  0  0  0  0  0  0  0  0  0  0
   -3.9292  -19.0079   28.0212 C   0  0  0  0  0  0  0  0  0  0  0  0
   -5.0095  -18.1602   27.8836 N   0  0  0  0  0  0  0  0  0  0  0  0
   -6.0921  -17.9597   28.6956 C   0  0  0  0  0  0  0  0  0  0  0  0
   -6.9241  -17.1281   27.9946 C   0  0  0  0  0  0  0  0  0  0  0  0
   -6.3300  -16.7342   26.8213 N   0  0  0  0  0  0  0  0  0  0  0  0
   -5.1250  -17.2842   26.8106 C   0  0  0  0  0  0  0  0  0  0  0  0
   -4.0623  -17.0613   25.9637 N   0  0  0  0  0  0  0  0  0  0  0  0
    0.9202  -16.7398   23.6489 N   0  0  0  0  0  0  0  0  0  0  0  0
    4.7682  -16.5226   23.5359 C   0  0  0  0  0  0  0  0  0  0  0  0
    6.8029  -17.2265   22.9562 H   0  0  0  0  0  0  0  0  0  0  0  0
    5.6087  -18.9861   21.3947 H   0  0  0  0  0  0  0  0  0  0  0  0
    2.8626  -14.3124   24.8283 H   0  0  0  0  0  0  0  0  0  0  0  0
    0.3897  -14.1078   25.3175 H   0  0  0  0  0  0  0  0  0  0  0  0
   -1.9524  -16.2155   23.7615 H   0  0  0  0  0  0  0  0  0  0  0  0
   -1.7597  -15.4461   25.3419 H   0  0  0  0  0  0  0  0  0  0  0  0
   -1.0163  -18.1696   25.5009 H   0  0  0  0  0  0  0  0  0  0  0  0
   -2.0405  -19.5401   27.1816 H   0  0  0  0  0  0  0  0  0  0  0  0
   -3.9401  -19.7094   28.8453 H   0  0  0  0  0  0  0  0  0  0  0  0
   -6.1587  -18.3972   29.6785 H   0  0  0  0  0  0  0  0  0  0  0  0
   -7.8983  -16.7580   28.2841 H   0  0  0  0  0  0  0  0  0  0  0  0
    5.0209  -15.7587   24.2577 H   0  0  0  0  0  0  0  0  0  0  0  0
  1  2  2  0
  2  3  1  0
  3  4  1  0
  4  5  1  0
  5  6  2  0
  6  7  1  0
  7  8  1  0
  8  9  1  0
  9 10  1  0
 10 11  1  0
 11 12  1  0
 12 13  2  0
 13 14  1  0
 14 15  1  0
 15 16  2  0
 16 17  1  0
 17 18  2  0
 18 19  1  0
  8 20  2  0
  4 21  2  0
 21  1  1  0
 20  5  1  0
 19 11  2  0
 18 14  1  0
  1 22  1  0
  2 23  1  0
  6 24  1  0
  7 25  1  0
  9 26  1  0
  9 27  1  0
 10 28  1  0
 12 29  1  0
 13 30  1  0
 15 31  1  0
 16 32  1  0
 21 33  1  0
M  END
>  <Energy>  (928) 
7.9774918502608658

>  <compound_id>  (928) 
8688

>  <target_id>  (928) 
1

>  <reference_id>  (928) 
80

>  <inspiration_ids>  (928) 
[80, 107]

>  <energy_score>  (928) 
-64.32448832951201

>  <distance_score>  (928) 
14.072131585180918

>  <path>  (928) 
/opt/xchem-fragalysis-2/maxwin/BulkDock/SCRATCH/511020/C8688-P80/C8688-P80.minimised.mol

>  <scratch_subdir>  (928) 
/opt/xchem-fragalysis-2/maxwin/BulkDock/SCRATCH/511020/C8688-P80

>  <fragmenstein_runtime>  (928) 
16.621034622192383

>  <fragmenstein_outcome>  (928) 
too moved

>  <fragmenstein_mode>  (928) 
expansion

>  <fragmenstein_error>  (928) 


$$$$
C8688-P107
     RDKit          3D

 33 36  0  0  0  0  0  0  0  0999 V2000
   11.2588   -5.2893   20.4720 C   0  0  0  0  0  0  0  0  0  0  0  0
   11.1693   -4.0766   21.0733 C   0  0  0  0  0  0  0  0  0  0  0  0
    8.9657   -3.6570   20.4784 S   0  0  0  0  0  0  0  0  0  0  0  0
    7.8915   -4.8858   20.6461 C   0  0  0  0  0  0  0  0  0  0  0  0
    7.1736   -5.9229   22.4933 C   0  0  0  0  0  0  0  0  0  0  0  0
    7.1149   -6.0666   23.9023 C   0  0  0  0  0  0  0  0  0  0  0  0
    5.9114   -7.0759   24.4764 N   0  0  0  0  0  0  0  0  0  0  0  0
    4.8480   -7.8185   23.4394 C   0  0  0  0  0  0  0  0  0  0  0  0
    4.5449   -9.9251   23.2215 C   0  0  0  0  0  0  0  0  0  0  0  0
    3.4808  -11.6045   22.8924 N   0  0  0  0  0  0  0  0  0  0  0  0
    2.8432  -12.9796   23.9344 C   0  0  0  0  0  0  0  0  0  0  0  0
    2.7353  -14.6020   23.6405 C   0  0  0  0  0  0  0  0  0  0  0  0
    2.0317  -15.4607   24.4054 C   0  0  0  0  0  0  0  0  0  0  0  0
    1.4680  -15.0233   25.5728 N   0  0  0  0  0  0  0  0  0  0  0  0
    0.6568  -15.6756   26.4736 C   0  0  0  0  0  0  0  0  0  0  0  0
    0.4220  -14.7540   27.4623 C   0  0  0  0  0  0  0  0  0  0  0  0
    1.0828  -13.5741   27.1879 N   0  0  0  0  0  0  0  0  0  0  0  0
    1.6919  -13.7331   26.0130 C   0  0  0  0  0  0  0  0  0  0  0  0
    2.3504  -12.7917   25.2159 N   0  0  0  0  0  0  0  0  0  0  0  0
    5.9422   -7.0867   22.4752 N   0  0  0  0  0  0  0  0  0  0  0  0
    9.6164   -5.3307   20.0261 C   0  0  0  0  0  0  0  0  0  0  0  0
   12.1363   -5.7379   20.0442 H   0  0  0  0  0  0  0  0  0  0  0  0
   11.9202   -3.3363   21.2241 H   0  0  0  0  0  0  0  0  0  0  0  0
    7.6238   -5.6408   24.7515 H   0  0  0  0  0  0  0  0  0  0  0  0
    5.9745   -7.4262   25.4128 H   0  0  0  0  0  0  0  0  0  0  0  0
    3.4882   -9.7926   23.2308 H   0  0  0  0  0  0  0  0  0  0  0  0
    5.2979  -10.5106   22.6846 H   0  0  0  0  0  0  0  0  0  0  0  0
    3.7476  -11.9873   21.9875 H   0  0  0  0  0  0  0  0  0  0  0  0
    3.0533  -15.0019   22.7001 H   0  0  0  0  0  0  0  0  0  0  0  0
    1.8700  -16.4934   24.1263 H   0  0  0  0  0  0  0  0  0  0  0  0
    0.3348  -16.6955   26.3285 H   0  0  0  0  0  0  0  0  0  0  0  0
   -0.1714  -14.8679   28.3596 H   0  0  0  0  0  0  0  0  0  0  0  0
    9.6205   -6.1209   19.3197 H   0  0  0  0  0  0  0  0  0  0  0  0
  1  2  2  0
  2  3  1  0
  3  4  1  0
  4  5  1  0
  5  6  2  0
  6  7  1  0
  7  8  1  0
  8  9  1  0
  9 10  1  0
 10 11  1  0
 11 12  1  0
 12 13  2  0
 13 14  1  0
 14 15  1  0
 15 16  2  0
 16 17  1  0
 17 18  2  0
 18 19  1  0
  8 20  2  0
  4 21  2  0
 21  1  1  0
 20  5  1  0
 19 11  2  0
 18 14  1  0
  1 22  1  0
  2 23  1  0
  6 24  1  0
  7 25  1  0
  9 26  1  0
  9 27  1  0
 10 28  1  0
 12 29  1  0
 13 30  1  0
 15 31  1  0
 16 32  1  0
 21 33  1  0
M  END
>  <Energy>  (929) 
999.18789914842773

>  <compound_id>  (929) 
8688

>  <target_id>  (929) 
1

>  <reference_id>  (929) 
107

>  <inspiration_ids>  (929) 
[80, 107]

>  <energy_score>  (929) 
926.8859189686699

>  <distance_score>  (929) 
15.341620367682205

>  <path>  (929) 
/opt/xchem-fragalysis-2/maxwin/BulkDock/SCRATCH/511020/C8688-P107/C8688-P107.minimised.mol

>  <scratch_subdir>  (929) 
/opt/xchem-fragalysis-2/maxwin/BulkDock/SCRATCH/511020/C8688-P107

>  <fragmenstein_runtime>  (929) 
13.170810222625732

>  <fragmenstein_outcome>  (929) 
too moved

>  <fragmenstein_mode>  (929) 
expansion

>  <fragmenstein_error>  (929) 


$$$$
C8683-P80
     RDKit          3D

 29 31  0  0  0  0  0  0  0  0999 V2000
   -3.2954  -14.6709   19.6926 F   0  0  0  0  0  0  0  0  0  0  0  0
   -3.9408  -14.3564   20.8448 C   0  0  0  0  0  0  0  0  0  0  0  0
   -5.2435  -14.6967   20.6661 F   0  0  0  0  0  0  0  0  0  0  0  0
   -3.8257  -12.9392   21.1496 N   0  0  0  0  0  0  0  0  0  0  0  0
   -3.1959  -11.9860   20.3774 C   0  0  0  0  0  0  0  0  0  0  0  0
   -3.4025  -10.7971   21.0245 C   0  0  0  0  0  0  0  0  0  0  0  0
   -4.1075  -11.0163   22.1965 N   0  0  0  0  0  0  0  0  0  0  0  0
   -4.3741  -12.3250   22.2680 C   0  0  0  0  0  0  0  0  0  0  0  0
   -4.9573  -13.0952   23.5222 C   0  0  0  0  0  0  0  0  0  0  0  0
   -6.2229  -13.8792   23.4449 N   0  0  0  0  0  0  0  0  0  0  0  0
   -6.8385  -14.4223   24.5962 C   0  0  0  0  0  0  0  0  0  0  0  0
   -8.3571  -14.5350   24.5977 C   0  0  0  0  0  0  0  0  0  0  0  0
   -8.9617  -14.9433   25.7245 C   0  0  0  0  0  0  0  0  0  0  0  0
   -8.1873  -15.3189   26.8058 N   0  0  0  0  0  0  0  0  0  0  0  0
   -8.5571  -15.8424   28.0217 C   0  0  0  0  0  0  0  0  0  0  0  0
   -7.3727  -16.1470   28.6493 C   0  0  0  0  0  0  0  0  0  0  0  0
   -6.3029  -15.7971   27.8618 N   0  0  0  0  0  0  0  0  0  0  0  0
   -6.7965  -15.2820   26.7504 C   0  0  0  0  0  0  0  0  0  0  0  0
   -6.1371  -14.8012   25.6404 N   0  0  0  0  0  0  0  0  0  0  0  0
   -3.5124  -14.9354   21.6677 H   0  0  0  0  0  0  0  0  0  0  0  0
   -2.6987  -12.2309   19.4476 H   0  0  0  0  0  0  0  0  0  0  0  0
   -3.0749   -9.8068   20.7323 H   0  0  0  0  0  0  0  0  0  0  0  0
   -5.0902  -12.3298   24.2978 H   0  0  0  0  0  0  0  0  0  0  0  0
   -4.1623  -13.7658   23.8713 H   0  0  0  0  0  0  0  0  0  0  0  0
   -6.8663  -13.4498   22.7870 H   0  0  0  0  0  0  0  0  0  0  0  0
   -8.8992  -14.2386   23.7105 H   0  0  0  0  0  0  0  0  0  0  0  0
  -10.0344  -15.0115   25.8274 H   0  0  0  0  0  0  0  0  0  0  0  0
   -9.5896  -15.9692   28.3090 H   0  0  0  0  0  0  0  0  0  0  0  0
   -7.2146  -16.5988   29.6208 H   0  0  0  0  0  0  0  0  0  0  0  0
  1  2  1  0
  2  3  1  0
  2  4  1  0
  4  5  1  0
  5  6  2  0
  6  7  1  0
  7  8  2  0
  8  9  1  0
  9 10  1  0
 10 11  1  0
 11 12  1  0
 12 13  2  0
 13 14  1  0
 14 15  1  0
 15 16  2  0
 16 17  1  0
 17 18  2  0
 18 19  1  0
  8  4  1  0
 19 11  2  0
 18 14  1  0
  2 20  1  0
  5 21  1  0
  6 22  1  0
  9 23  1  0
  9 24  1  0
 10 25  1  0
 12 26  1  0
 13 27  1  0
 15 28  1  0
 16 29  1  0
M  END
>  <Energy>  (930) 
9.8615579801071451

>  <compound_id>  (930) 
8683

>  <target_id>  (930) 
1

>  <reference_id>  (930) 
80

>  <inspiration_ids>  (930) 
[80, 107]

>  <energy_score>  (930) 
-31.70797943607795

>  <distance_score>  (930) 
14.44463107941279

>  <path>  (930) 
/opt/xchem-fragalysis-2/maxwin/BulkDock/SCRATCH/511020/C8683-P80/C8683-P80.minimised.mol

>  <scratch_subdir>  (930) 
/opt/xchem-fragalysis-2/maxwin/BulkDock/SCRATCH/511020/C8683-P80

>  <fragmenstein_runtime>  (930) 
17.358415603637695

>  <fragmenstein_outcome>  (930) 
too moved

>  <fragmenstein_mode>  (930) 
expansion

>  <fragmenstein_error>  (930) 


$$$$
C8683-P107
     RDKit          3D

 29 31  0  0  0  0  0  0  0  0999 V2000
    3.1282  -15.4357   24.7462 F   0  0  0  0  0  0  0  0  0  0  0  0
    1.8178  -15.2785   25.0728 C   0  0  0  0  0  0  0  0  0  0  0  0
    1.3947  -16.4970   25.5076 F   0  0  0  0  0  0  0  0  0  0  0  0
    1.6209  -14.2654   26.0811 N   0  0  0  0  0  0  0  0  0  0  0  0
    2.5175  -13.2992   26.4423 C   0  0  0  0  0  0  0  0  0  0  0  0
    1.8111  -12.4711   27.2749 C   0  0  0  0  0  0  0  0  0  0  0  0
    0.5308  -12.9520   27.4769 N   0  0  0  0  0  0  0  0  0  0  0  0
    0.4448  -14.0904   26.7979 C   0  0  0  0  0  0  0  0  0  0  0  0
   -0.7049  -15.1463   26.7642 C   0  0  0  0  0  0  0  0  0  0  0  0
   -1.9884  -14.8509   27.4097 N   0  0  0  0  0  0  0  0  0  0  0  0
   -2.9882  -15.7449   27.7629 C   0  0  0  0  0  0  0  0  0  0  0  0
   -3.3476  -16.9668   26.9437 C   0  0  0  0  0  0  0  0  0  0  0  0
   -4.3988  -17.6926   27.3612 C   0  0  0  0  0  0  0  0  0  0  0  0
   -5.0516  -17.3185   28.5230 N   0  0  0  0  0  0  0  0  0  0  0  0
   -6.1346  -17.8623   29.1468 C   0  0  0  0  0  0  0  0  0  0  0  0
   -6.2227  -17.1994   30.3462 C   0  0  0  0  0  0  0  0  0  0  0  0
   -5.3496  -16.1546   30.3913 N   0  0  0  0  0  0  0  0  0  0  0  0
   -4.6460  -16.2334   29.2821 C   0  0  0  0  0  0  0  0  0  0  0  0
   -3.6356  -15.4261   28.8607 N   0  0  0  0  0  0  0  0  0  0  0  0
    1.2440  -14.9967   24.1892 H   0  0  0  0  0  0  0  0  0  0  0  0
    3.5325  -13.2904   26.0728 H   0  0  0  0  0  0  0  0  0  0  0  0
    2.1540  -11.5722   27.7690 H   0  0  0  0  0  0  0  0  0  0  0  0
   -0.2994  -16.0532   27.2296 H   0  0  0  0  0  0  0  0  0  0  0  0
   -0.9117  -15.3745   25.7122 H   0  0  0  0  0  0  0  0  0  0  0  0
   -1.8655  -14.1428   28.1347 H   0  0  0  0  0  0  0  0  0  0  0  0
   -2.7830  -17.1864   26.0500 H   0  0  0  0  0  0  0  0  0  0  0  0
   -4.7602  -18.5690   26.8416 H   0  0  0  0  0  0  0  0  0  0  0  0
   -6.6824  -18.6825   28.7250 H   0  0  0  0  0  0  0  0  0  0  0  0
   -6.8672  -17.3951   31.1864 H   0  0  0  0  0  0  0  0  0  0  0  0
  1  2  1  0
  2  3  1  0
  2  4  1  0
  4  5  1  0
  5  6  2  0
  6  7  1  0
  7  8  2  0
  8  9  1  0
  9 10  1  0
 10 11  1  0
 11 12  1  0
 12 13  2  0
 13 14  1  0
 14 15  1  0
 15 16  2  0
 16 17  1  0
 17 18  2  0
 18 19  1  0
  8  4  1  0
 19 11  2  0
 18 14  1  0
  2 20  1  0
  5 21  1  0
  6 22  1  0
  9 23  1  0
  9 24  1  0
 10 25  1  0
 12 26  1  0
 13 27  1  0
 15 28  1  0
 16 29  1  0
M  END
>  <Energy>  (931) 
11.717501838078297

>  <compound_id>  (931) 
8683

>  <target_id>  (931) 
1

>  <reference_id>  (931) 
107

>  <inspiration_ids>  (931) 
[80, 107]

>  <energy_score>  (931) 
-29.85203557810729

>  <distance_score>  (931) 
14.111474453685224

>  <path>  (931) 
/opt/xchem-fragalysis-2/maxwin/BulkDock/SCRATCH/511020/C8683-P107/C8683-P107.minimised.mol

>  <scratch_subdir>  (931) 
/opt/xchem-fragalysis-2/maxwin/BulkDock/SCRATCH/511020/C8683-P107

>  <fragmenstein_runtime>  (931) 
13.919240236282349

>  <fragmenstein_outcome>  (931) 
too moved

>  <fragmenstein_mode>  (931) 
expansion

>  <fragmenstein_error>  (931) 


$$$$
C8689-P80
     RDKit          3D

 29 31  0  0  0  0  0  0  0  0999 V2000
    3.7427  -13.0339   18.1958 C   0  0  0  0  0  0  0  0  0  0  0  0
    4.1067  -13.2979   19.4150 C   0  0  0  0  0  0  0  0  0  0  0  0
    3.2294  -14.5850   18.7463 N   0  0  0  0  0  0  0  0  0  0  0  0
    1.9446  -15.1333   18.9314 C   0  0  0  0  0  0  0  0  0  0  0  0
    0.5561  -16.1962   20.0361 C   0  0  0  0  0  0  0  0  0  0  0  0
   -0.0021  -17.6338   20.6110 N   0  0  0  0  0  0  0  0  0  0  0  0
   -1.2480  -17.7985   21.3163 C   0  0  0  0  0  0  0  0  0  0  0  0
   -2.5807  -17.7448   20.6013 C   0  0  0  0  0  0  0  0  0  0  0  0
   -3.6948  -18.0064   21.3096 C   0  0  0  0  0  0  0  0  0  0  0  0
   -3.5957  -18.2899   22.6602 N   0  0  0  0  0  0  0  0  0  0  0  0
   -4.5771  -18.5358   23.5899 C   0  0  0  0  0  0  0  0  0  0  0  0
   -3.9106  -18.7405   24.7730 C   0  0  0  0  0  0  0  0  0  0  0  0
   -2.5560  -18.6142   24.5878 N   0  0  0  0  0  0  0  0  0  0  0  0
   -2.3677  -18.3334   23.3053 C   0  0  0  0  0  0  0  0  0  0  0  0
   -1.1984  -18.0996   22.6078 N   0  0  0  0  0  0  0  0  0  0  0  0
    4.0953  -15.4466   18.2103 C   0  0  0  0  0  0  0  0  0  0  0  0
    4.3670  -14.4034   17.6174 N   0  0  0  0  0  0  0  0  0  0  0  0
    3.7641  -12.1098   17.6298 H   0  0  0  0  0  0  0  0  0  0  0  0
    5.1424  -13.4541   19.7214 H   0  0  0  0  0  0  0  0  0  0  0  0
    2.2397  -15.7939   18.1261 H   0  0  0  0  0  0  0  0  0  0  0  0
    2.2484  -14.9529   19.9880 H   0  0  0  0  0  0  0  0  0  0  0  0
   -0.4626  -15.8609   19.7852 H   0  0  0  0  0  0  0  0  0  0  0  0
    0.6895  -15.7937   21.0119 H   0  0  0  0  0  0  0  0  0  0  0  0
    0.6534  -17.8071   21.3909 H   0  0  0  0  0  0  0  0  0  0  0  0
   -2.5774  -17.5189   19.5441 H   0  0  0  0  0  0  0  0  0  0  0  0
   -4.6827  -17.9954   20.8696 H   0  0  0  0  0  0  0  0  0  0  0  0
   -5.6227  -18.5379   23.3240 H   0  0  0  0  0  0  0  0  0  0  0  0
   -4.3210  -18.9661   25.7485 H   0  0  0  0  0  0  0  0  0  0  0  0
    4.2024  -16.4993   18.0044 H   0  0  0  0  0  0  0  0  0  0  0  0
  1  2  2  0
  2  3  1  0
  3  4  1  0
  4  5  1  0
  5  6  1  0
  6  7  1  0
  7  8  1  0
  8  9  2  0
  9 10  1  0
 10 11  1  0
 11 12  2  0
 12 13  1  0
 13 14  2  0
 14 15  1  0
  3 16  1  0
 16 17  2  0
 17  1  1  0
 15  7  2  0
 14 10  1  0
  1 18  1  0
  2 19  1  0
  4 20  1  0
  4 21  1  0
  5 22  1  0
  5 23  1  0
  6 24  1  0
  8 25  1  0
  9 26  1  0
 11 27  1  0
 12 28  1  0
 16 29  1  0
M  END
>  <Energy>  (932) 
402.09461977888719

>  <compound_id>  (932) 
8689

>  <target_id>  (932) 
1

>  <reference_id>  (932) 
80

>  <inspiration_ids>  (932) 
[80, 107]

>  <energy_score>  (932) 
378.5981739189794

>  <distance_score>  (932) 
13.978210641036828

>  <path>  (932) 
/opt/xchem-fragalysis-2/maxwin/BulkDock/SCRATCH/511020/C8689-P80/C8689-P80.minimised.mol

>  <scratch_subdir>  (932) 
/opt/xchem-fragalysis-2/maxwin/BulkDock/SCRATCH/511020/C8689-P80

>  <fragmenstein_runtime>  (932) 
12.788381814956665

>  <fragmenstein_outcome>  (932) 
too moved

>  <fragmenstein_mode>  (932) 
expansion

>  <fragmenstein_error>  (932) 


$$$$
C8689-P107
     RDKit          3D

 29 31  0  0  0  0  0  0  0  0999 V2000
   -0.1526  -10.2212   21.8555 C   0  0  0  0  0  0  0  0  0  0  0  0
    0.4556  -11.3107   22.5394 C   0  0  0  0  0  0  0  0  0  0  0  0
   -0.3378  -12.5934   22.5598 N   0  0  0  0  0  0  0  0  0  0  0  0
   -0.2448  -14.3372   23.2586 C   0  0  0  0  0  0  0  0  0  0  0  0
   -0.9888  -15.0488   24.6598 C   0  0  0  0  0  0  0  0  0  0  0  0
   -2.1970  -15.9758   24.4384 N   0  0  0  0  0  0  0  0  0  0  0  0
   -2.9589  -16.5968   25.4559 C   0  0  0  0  0  0  0  0  0  0  0  0
   -2.2822  -17.3545   26.5777 C   0  0  0  0  0  0  0  0  0  0  0  0
   -3.0564  -17.9240   27.5157 C   0  0  0  0  0  0  0  0  0  0  0  0
   -4.4276  -17.7817   27.4368 N   0  0  0  0  0  0  0  0  0  0  0  0
   -5.4040  -18.1733   28.3144 C   0  0  0  0  0  0  0  0  0  0  0  0
   -6.5758  -17.7124   27.7723 C   0  0  0  0  0  0  0  0  0  0  0  0
   -6.3463  -17.0944   26.5655 N   0  0  0  0  0  0  0  0  0  0  0  0
   -5.0343  -17.1090   26.3805 C   0  0  0  0  0  0  0  0  0  0  0  0
   -4.2782  -16.5407   25.3729 N   0  0  0  0  0  0  0  0  0  0  0  0
   -1.4188  -11.8359   21.2748 C   0  0  0  0  0  0  0  0  0  0  0  0
   -1.3456  -10.5258   21.2668 N   0  0  0  0  0  0  0  0  0  0  0  0
    0.2524   -9.2247   21.7204 H   0  0  0  0  0  0  0  0  0  0  0  0
    1.3852  -11.6238   23.0068 H   0  0  0  0  0  0  0  0  0  0  0  0
   -0.4855  -14.9732   22.4238 H   0  0  0  0  0  0  0  0  0  0  0  0
    0.7936  -14.4575   23.5911 H   0  0  0  0  0  0  0  0  0  0  0  0
   -0.2088  -15.7007   25.0727 H   0  0  0  0  0  0  0  0  0  0  0  0
   -1.2162  -14.3064   25.4332 H   0  0  0  0  0  0  0  0  0  0  0  0
   -2.8149  -15.6356   23.7085 H   0  0  0  0  0  0  0  0  0  0  0  0
   -1.2037  -17.4240   26.5766 H   0  0  0  0  0  0  0  0  0  0  0  0
   -2.6579  -18.4768   28.3565 H   0  0  0  0  0  0  0  0  0  0  0  0
   -5.1824  -18.6848   29.2412 H   0  0  0  0  0  0  0  0  0  0  0  0
   -7.5718  -17.7849   28.1853 H   0  0  0  0  0  0  0  0  0  0  0  0
   -1.9413  -12.5588   20.6560 H   0  0  0  0  0  0  0  0  0  0  0  0
  1  2  2  0
  2  3  1  0
  3  4  1  0
  4  5  1  0
  5  6  1  0
  6  7  1  0
  7  8  1  0
  8  9  2  0
  9 10  1  0
 10 11  1  0
 11 12  2  0
 12 13  1  0
 13 14  2  0
 14 15  1  0
  3 16  1  0
 16 17  2  0
 17  1  1  0
 15  7  2  0
 14 10  1  0
  1 18  1  0
  2 19  1  0
  4 20  1  0
  4 21  1  0
  5 22  1  0
  5 23  1  0
  6 24  1  0
  8 25  1  0
  9 26  1  0
 11 27  1  0
 12 28  1  0
 16 29  1  0
M  END
>  <Energy>  (933) 
183.42264815524194

>  <compound_id>  (933) 
8689

>  <target_id>  (933) 
1

>  <reference_id>  (933) 
107

>  <inspiration_ids>  (933) 
[80, 107]

>  <energy_score>  (933) 
159.92620229535106

>  <distance_score>  (933) 
13.212949888916425

>  <path>  (933) 
/opt/xchem-fragalysis-2/maxwin/BulkDock/SCRATCH/511020/C8689-P107/C8689-P107.minimised.mol

>  <scratch_subdir>  (933) 
/opt/xchem-fragalysis-2/maxwin/BulkDock/SCRATCH/511020/C8689-P107

>  <fragmenstein_runtime>  (933) 
15.784548282623291

>  <fragmenstein_outcome>  (933) 
too moved

>  <fragmenstein_mode>  (933) 
expansion

>  <fragmenstein_error>  (933) 


$$$$
C8690-P80
     RDKit          3D

 34 36  0  0  0  0  0  0  0  0999 V2000
   -1.3981  -11.1792   20.8878 C   0  0  0  0  0  0  0  0  0  0  0  0
    0.0913  -10.4603   21.7711 C   0  0  0  0  0  0  0  0  0  0  0  0
    0.5774  -11.7194   22.8210 N   0  0  0  0  0  0  0  0  0  0  0  0
    2.1030  -12.1605   23.4227 C   0  0  0  0  0  0  0  0  0  0  0  0
    3.1207  -11.6624   23.1489 O   0  0  0  0  0  0  0  0  0  0  0  0
    1.7132  -13.7611   24.5456 C   0  0  0  0  0  0  0  0  0  0  0  0
    0.6943  -14.8984   23.9407 C   0  0  0  0  0  0  0  0  0  0  0  0
   -0.0060  -15.7402   24.7162 C   0  0  0  0  0  0  0  0  0  0  0  0
    0.1187  -15.6368   26.0707 N   0  0  0  0  0  0  0  0  0  0  0  0
   -0.5624  -16.3050   27.0602 C   0  0  0  0  0  0  0  0  0  0  0  0
   -0.1123  -15.7458   28.2267 C   0  0  0  0  0  0  0  0  0  0  0  0
    0.8318  -14.7757   27.9619 N   0  0  0  0  0  0  0  0  0  0  0  0
    0.9867  -14.7140   26.6423 C   0  0  0  0  0  0  0  0  0  0  0  0
    1.7657  -13.8355   25.8812 N   0  0  0  0  0  0  0  0  0  0  0  0
   -0.6092   -9.1486   21.9453 C   0  0  0  0  0  0  0  0  0  0  0  0
   -1.7417   -8.8955   22.5967 N   0  0  0  0  0  0  0  0  0  0  0  0
   -2.6887   -8.6344   21.6432 C   0  0  0  0  0  0  0  0  0  0  0  0
   -2.0952   -8.6341   20.4095 C   0  0  0  0  0  0  0  0  0  0  0  0
   -0.7405   -8.5648   20.7099 N   0  0  0  0  0  0  0  0  0  0  0  0
    0.2976   -8.2849   19.7618 C   0  0  0  0  0  0  0  0  0  0  0  0
   -2.3362  -10.9271   21.3761 H   0  0  0  0  0  0  0  0  0  0  0  0
   -1.5118  -12.2557   20.8250 H   0  0  0  0  0  0  0  0  0  0  0  0
   -1.5397  -10.8571   19.8562 H   0  0  0  0  0  0  0  0  0  0  0  0
    0.9191  -10.1939   21.1846 H   0  0  0  0  0  0  0  0  0  0  0  0
   -0.1055  -12.3653   23.1478 H   0  0  0  0  0  0  0  0  0  0  0  0
    0.4357  -14.9244   22.8993 H   0  0  0  0  0  0  0  0  0  0  0  0
   -0.7136  -16.4568   24.3209 H   0  0  0  0  0  0  0  0  0  0  0  0
   -1.2878  -17.0760   26.8488 H   0  0  0  0  0  0  0  0  0  0  0  0
   -0.4035  -15.9800   29.2422 H   0  0  0  0  0  0  0  0  0  0  0  0
   -3.7361   -8.5231   21.8912 H   0  0  0  0  0  0  0  0  0  0  0  0
   -2.4828   -8.5549   19.4030 H   0  0  0  0  0  0  0  0  0  0  0  0
   -0.1589   -8.2283   18.7694 H   0  0  0  0  0  0  0  0  0  0  0  0
    1.1665   -8.9129   19.7615 H   0  0  0  0  0  0  0  0  0  0  0  0
    0.9002   -7.4417   20.0542 H   0  0  0  0  0  0  0  0  0  0  0  0
  1  2  1  0
  2  3  1  0
  3  4  1  0
  4  5  2  0
  4  6  1  0
  6  7  1  0
  7  8  2  0
  8  9  1  0
  9 10  1  0
 10 11  2  0
 11 12  1  0
 12 13  2  0
 13 14  1  0
  2 15  1  0
 15 16  2  0
 16 17  1  0
 17 18  2  0
 18 19  1  0
 19 20  1  0
 14  6  2  0
 19 15  1  0
 13  9  1  0
  1 21  1  0
  1 22  1  0
  1 23  1  0
  2 24  1  0
  3 25  1  0
  7 26  1  0
  8 27  1  0
 10 28  1  0
 11 29  1  0
 17 30  1  0
 18 31  1  0
 20 32  1  0
 20 33  1  0
 20 34  1  0
M  END
>  <Energy>  (934) 
291.45217047950928

>  <compound_id>  (934) 
8690

>  <target_id>  (934) 
1

>  <reference_id>  (934) 
80

>  <inspiration_ids>  (934) 
[80, 107]

>  <energy_score>  (934) 
221.47402221754896

>  <distance_score>  (934) 
16.1713017271303

>  <path>  (934) 
/opt/xchem-fragalysis-2/maxwin/BulkDock/SCRATCH/511020/C8690-P80/C8690-P80.minimised.mol

>  <scratch_subdir>  (934) 
/opt/xchem-fragalysis-2/maxwin/BulkDock/SCRATCH/511020/C8690-P80

>  <fragmenstein_runtime>  (934) 
23.901978254318237

>  <fragmenstein_outcome>  (934) 
too moved

>  <fragmenstein_mode>  (934) 
expansion

>  <fragmenstein_error>  (934) 


$$$$
C8690-P107
     RDKit          3D

 34 36  0  0  0  0  0  0  0  0999 V2000
   -6.0464   -9.6124   22.8044 C   0  0  0  0  0  0  0  0  0  0  0  0
   -5.3693  -10.8266   22.1595 C   0  0  0  0  0  0  0  0  0  0  0  0
   -5.5078  -11.9891   23.0902 N   0  0  0  0  0  0  0  0  0  0  0  0
   -5.9464  -13.3521   22.8506 C   0  0  0  0  0  0  0  0  0  0  0  0
   -6.2317  -13.9131   21.8305 O   0  0  0  0  0  0  0  0  0  0  0  0
   -6.2061  -14.2465   24.1296 C   0  0  0  0  0  0  0  0  0  0  0  0
   -5.2761  -15.4180   24.3355 C   0  0  0  0  0  0  0  0  0  0  0  0
   -5.5835  -16.2664   25.3344 C   0  0  0  0  0  0  0  0  0  0  0  0
   -6.7183  -16.0398   26.0985 N   0  0  0  0  0  0  0  0  0  0  0  0
   -7.2296  -16.7454   27.1611 C   0  0  0  0  0  0  0  0  0  0  0  0
   -8.4113  -16.1184   27.4709 C   0  0  0  0  0  0  0  0  0  0  0  0
   -8.6148  -15.0329   26.6526 N   0  0  0  0  0  0  0  0  0  0  0  0
   -7.5660  -14.9597   25.8487 C   0  0  0  0  0  0  0  0  0  0  0  0
   -7.2767  -14.0362   24.8602 N   0  0  0  0  0  0  0  0  0  0  0  0
   -3.9721  -10.3952   21.6263 C   0  0  0  0  0  0  0  0  0  0  0  0
   -3.0499   -9.6635   22.2544 N   0  0  0  0  0  0  0  0  0  0  0  0
   -2.0901   -9.3222   21.3149 C   0  0  0  0  0  0  0  0  0  0  0  0
   -2.4376   -9.8194   20.0899 C   0  0  0  0  0  0  0  0  0  0  0  0
   -3.5669  -10.5597   20.3080 N   0  0  0  0  0  0  0  0  0  0  0  0
   -4.2310  -11.3634   19.3082 C   0  0  0  0  0  0  0  0  0  0  0  0
   -5.5202   -9.3036   23.7151 H   0  0  0  0  0  0  0  0  0  0  0  0
   -7.0797   -9.8459   23.0842 H   0  0  0  0  0  0  0  0  0  0  0  0
   -6.0656   -8.7575   22.1194 H   0  0  0  0  0  0  0  0  0  0  0  0
   -5.9767  -11.1028   21.2895 H   0  0  0  0  0  0  0  0  0  0  0  0
   -5.4363  -11.8351   24.0908 H   0  0  0  0  0  0  0  0  0  0  0  0
   -4.4263  -15.5399   23.6772 H   0  0  0  0  0  0  0  0  0  0  0  0
   -4.9855  -17.1373   25.5727 H   0  0  0  0  0  0  0  0  0  0  0  0
   -6.7296  -17.6067   27.5805 H   0  0  0  0  0  0  0  0  0  0  0  0
   -9.1261  -16.3795   28.2391 H   0  0  0  0  0  0  0  0  0  0  0  0
   -1.2105   -8.7498   21.5806 H   0  0  0  0  0  0  0  0  0  0  0  0
   -1.9642   -9.7559   19.1222 H   0  0  0  0  0  0  0  0  0  0  0  0
   -5.1408  -10.8439   18.9979 H   0  0  0  0  0  0  0  0  0  0  0  0
   -4.4659  -12.3389   19.7412 H   0  0  0  0  0  0  0  0  0  0  0  0
   -3.5662  -11.4978   18.4507 H   0  0  0  0  0  0  0  0  0  0  0  0
  1  2  1  0
  2  3  1  0
  3  4  1  0
  4  5  2  0
  4  6  1  0
  6  7  1  0
  7  8  2  0
  8  9  1  0
  9 10  1  0
 10 11  2  0
 11 12  1  0
 12 13  2  0
 13 14  1  0
  2 15  1  0
 15 16  2  0
 16 17  1  0
 17 18  2  0
 18 19  1  0
 19 20  1  0
 14  6  2  0
 19 15  1  0
 13  9  1  0
  1 21  1  0
  1 22  1  0
  1 23  1  0
  2 24  1  0
  3 25  1  0
  7 26  1  0
  8 27  1  0
 10 28  1  0
 11 29  1  0
 17 30  1  0
 18 31  1  0
 20 32  1  0
 20 33  1  0
 20 34  1  0
M  END
>  <Energy>  (935) 
67.06458015139863

>  <compound_id>  (935) 
8690

>  <target_id>  (935) 
1

>  <reference_id>  (935) 
107

>  <inspiration_ids>  (935) 
[80, 107]

>  <energy_score>  (935) 
-2.9135681105597087

>  <distance_score>  (935) 
13.83486348174148

>  <path>  (935) 
/opt/xchem-fragalysis-2/maxwin/BulkDock/SCRATCH/511020/C8690-P107/C8690-P107.minimised.mol

>  <scratch_subdir>  (935) 
/opt/xchem-fragalysis-2/maxwin/BulkDock/SCRATCH/511020/C8690-P107

>  <fragmenstein_runtime>  (935) 
37.30939984321594

>  <fragmenstein_outcome>  (935) 
too moved

>  <fragmenstein_mode>  (935) 
expansion

>  <fragmenstein_error>  (935) 


$$$$
C8681-P80
     RDKit          3D

 37 39  0  0  0  0  0  0  0  0999 V2000
   -3.7147  -10.7001   18.0902 C   0  0  0  0  0  0  0  0  0  0  0  0
   -2.6033  -10.5190   18.9912 N   0  0  0  0  0  0  0  0  0  0  0  0
   -2.3208   -9.2629   19.4718 C   0  0  0  0  0  0  0  0  0  0  0  0
   -1.6501   -9.4610   20.6461 C   0  0  0  0  0  0  0  0  0  0  0  0
   -1.5182  -10.7975   20.8768 N   0  0  0  0  0  0  0  0  0  0  0  0
   -1.9649  -11.4576   19.8041 C   0  0  0  0  0  0  0  0  0  0  0  0
   -2.2917  -12.9801   19.9257 C   0  0  0  0  0  0  0  0  0  0  0  0
   -1.7750  -14.6987   19.1894 C   0  0  0  0  0  0  0  0  0  0  0  0
   -2.4309  -16.0070   19.9144 N   0  0  0  0  0  0  0  0  0  0  0  0
   -3.5414  -16.8670   19.5210 C   0  0  0  0  0  0  0  0  0  0  0  0
   -4.2024  -16.8823   18.5232 O   0  0  0  0  0  0  0  0  0  0  0  0
   -3.9198  -17.8369   20.7363 C   0  0  0  0  0  0  0  0  0  0  0  0
   -3.2621  -19.1746   20.8795 C   0  0  0  0  0  0  0  0  0  0  0  0
   -3.3681  -19.7468   22.0962 C   0  0  0  0  0  0  0  0  0  0  0  0
   -4.0743  -19.0996   23.1046 N   0  0  0  0  0  0  0  0  0  0  0  0
   -4.1174  -19.3411   24.4565 C   0  0  0  0  0  0  0  0  0  0  0  0
   -4.8879  -18.3278   24.9817 C   0  0  0  0  0  0  0  0  0  0  0  0
   -5.3565  -17.5078   23.9851 N   0  0  0  0  0  0  0  0  0  0  0  0
   -4.8051  -17.9406   22.8612 C   0  0  0  0  0  0  0  0  0  0  0  0
   -4.7424  -17.3260   21.6343 N   0  0  0  0  0  0  0  0  0  0  0  0
   -1.9042  -13.9933   17.6719 C   0  0  0  0  0  0  0  0  0  0  0  0
   -1.6021  -12.8317   17.5566 O   0  0  0  0  0  0  0  0  0  0  0  0
   -2.4012  -14.7285   16.6636 O   0  0  0  0  0  0  0  0  0  0  0  0
   -4.6226  -10.8133   18.6895 H   0  0  0  0  0  0  0  0  0  0  0  0
   -3.8103   -9.8180   17.4503 H   0  0  0  0  0  0  0  0  0  0  0  0
   -3.5727  -11.5666   17.4614 H   0  0  0  0  0  0  0  0  0  0  0  0
   -2.6887   -8.3823   18.9705 H   0  0  0  0  0  0  0  0  0  0  0  0
   -1.2637   -8.7446   21.3544 H   0  0  0  0  0  0  0  0  0  0  0  0
   -1.9470  -13.2221   20.8572 H   0  0  0  0  0  0  0  0  0  0  0  0
   -3.3126  -12.7222   20.1033 H   0  0  0  0  0  0  0  0  0  0  0  0
   -0.8477  -15.1695   19.1964 H   0  0  0  0  0  0  0  0  0  0  0  0
   -2.0556  -16.3345   20.7910 H   0  0  0  0  0  0  0  0  0  0  0  0
   -2.6973  -19.5804   20.0523 H   0  0  0  0  0  0  0  0  0  0  0  0
   -2.8757  -20.6765   22.3511 H   0  0  0  0  0  0  0  0  0  0  0  0
   -3.5947  -20.1696   24.9115 H   0  0  0  0  0  0  0  0  0  0  0  0
   -5.1479  -18.1582   26.0190 H   0  0  0  0  0  0  0  0  0  0  0  0
   -2.0895  -14.2442   15.8750 H   0  0  0  0  0  0  0  0  0  0  0  0
  1  2  1  0
  2  3  1  0
  3  4  2  0
  4  5  1  0
  5  6  2  0
  6  7  1  0
  7  8  1  0
  8  9  1  0
  9 10  1  0
 10 11  2  0
 10 12  1  0
 12 13  1  0
 13 14  2  0
 14 15  1  0
 15 16  1  0
 16 17  2  0
 17 18  1  0
 18 19  2  0
 19 20  1  0
  8 21  1  0
 21 22  2  0
 21 23  1  0
  6  2  1  0
 20 12  2  0
 19 15  1  0
  1 24  1  0
  1 25  1  0
  1 26  1  0
  3 27  1  0
  4 28  1  0
  7 29  1  0
  7 30  1  0
  8 31  1  0
  9 32  1  0
 13 33  1  0
 14 34  1  0
 16 35  1  0
 17 36  1  0
 23 37  1  0
M  END
>  <Energy>  (936) 
220.70031671507317

>  <compound_id>  (936) 
8681

>  <target_id>  (936) 
1

>  <reference_id>  (936) 
80

>  <inspiration_ids>  (936) 
[80, 107]

>  <energy_score>  (936) 
124.49107184479044

>  <distance_score>  (936) 
14.092655481677497

>  <path>  (936) 
/opt/xchem-fragalysis-2/maxwin/BulkDock/SCRATCH/511020/C8681-P80/C8681-P80.minimised.mol

>  <scratch_subdir>  (936) 
/opt/xchem-fragalysis-2/maxwin/BulkDock/SCRATCH/511020/C8681-P80

>  <fragmenstein_runtime>  (936) 
26.37448215484619

>  <fragmenstein_outcome>  (936) 
too moved

>  <fragmenstein_mode>  (936) 
expansion

>  <fragmenstein_error>  (936) 


$$$$
C8681-P107
     RDKit          3D

 37 39  0  0  0  0  0  0  0  0999 V2000
   -2.5650   -9.2655   18.9566 C   0  0  0  0  0  0  0  0  0  0  0  0
   -3.1998  -10.1609   18.0227 N   0  0  0  0  0  0  0  0  0  0  0  0
   -4.1471   -9.5632   17.2097 C   0  0  0  0  0  0  0  0  0  0  0  0
   -4.8685  -10.5727   16.6723 C   0  0  0  0  0  0  0  0  0  0  0  0
   -4.3605  -11.7630   17.0771 N   0  0  0  0  0  0  0  0  0  0  0  0
   -3.2577  -11.5664   17.8040 C   0  0  0  0  0  0  0  0  0  0  0  0
   -2.2297  -13.0598   18.1303 C   0  0  0  0  0  0  0  0  0  0  0  0
   -2.3936  -13.7894   19.9549 C   0  0  0  0  0  0  0  0  0  0  0  0
   -3.0896  -15.6199   20.5582 N   0  0  0  0  0  0  0  0  0  0  0  0
   -4.8239  -16.2051   21.1306 C   0  0  0  0  0  0  0  0  0  0  0  0
   -5.7462  -15.4253   21.0623 O   0  0  0  0  0  0  0  0  0  0  0  0
   -5.4532  -17.8932   22.0530 C   0  0  0  0  0  0  0  0  0  0  0  0
   -5.8435  -19.3223   21.3857 C   0  0  0  0  0  0  0  0  0  0  0  0
   -6.5600  -20.4429   21.8507 C   0  0  0  0  0  0  0  0  0  0  0  0
   -7.2557  -20.6731   23.1396 N   0  0  0  0  0  0  0  0  0  0  0  0
   -7.9100  -22.2989   24.0012 C   0  0  0  0  0  0  0  0  0  0  0  0
   -7.5290  -22.0816   26.0185 C   0  0  0  0  0  0  0  0  0  0  0  0
   -7.0858  -19.8865   25.9808 N   0  0  0  0  0  0  0  0  0  0  0  0
   -7.1121  -19.1205   24.2254 C   0  0  0  0  0  0  0  0  0  0  0  0
   -6.1582  -17.9294   23.4375 N   0  0  0  0  0  0  0  0  0  0  0  0
   -1.8567  -12.1628   20.2856 C   0  0  0  0  0  0  0  0  0  0  0  0
   -1.9185  -11.5076   21.2951 O   0  0  0  0  0  0  0  0  0  0  0  0
   -1.3953  -11.4797   19.3130 O   0  0  0  0  0  0  0  0  0  0  0  0
   -3.0696   -8.2926   18.9327 H   0  0  0  0  0  0  0  0  0  0  0  0
   -2.6970   -9.6195   19.9765 H   0  0  0  0  0  0  0  0  0  0  0  0
   -1.5384   -9.0922   18.6451 H   0  0  0  0  0  0  0  0  0  0  0  0
   -4.2764   -8.4923   17.1538 H   0  0  0  0  0  0  0  0  0  0  0  0
   -5.7379  -10.5151   16.0317 H   0  0  0  0  0  0  0  0  0  0  0  0
   -2.4892  -13.7459   17.3029 H   0  0  0  0  0  0  0  0  0  0  0  0
   -1.1968  -12.8453   17.8693 H   0  0  0  0  0  0  0  0  0  0  0  0
   -3.2157  -13.1072   20.2332 H   0  0  0  0  0  0  0  0  0  0  0  0
   -2.4467  -16.4169   20.5992 H   0  0  0  0  0  0  0  0  0  0  0  0
   -5.4288  -19.3694   20.3791 H   0  0  0  0  0  0  0  0  0  0  0  0
   -6.6337  -21.3159   21.2079 H   0  0  0  0  0  0  0  0  0  0  0  0
   -7.5592  -23.1178   23.3630 H   0  0  0  0  0  0  0  0  0  0  0  0
   -6.9223  -22.6771   26.7276 H   0  0  0  0  0  0  0  0  0  0  0  0
   -0.9649  -10.7054   19.7519 H   0  0  0  0  0  0  0  0  0  0  0  0
  1  2  1  0
  2  3  1  0
  3  4  2  0
  4  5  1  0
  5  6  2  0
  6  7  1  0
  7  8  1  0
  8  9  1  0
  9 10  1  0
 10 11  2  0
 10 12  1  0
 12 13  1  0
 13 14  2  0
 14 15  1  0
 15 16  1  0
 16 17  2  0
 17 18  1  0
 18 19  2  0
 19 20  1  0
  8 21  1  0
 21 22  2  0
 21 23  1  0
  6  2  1  0
 20 12  2  0
 19 15  1  0
  1 24  1  0
  1 25  1  0
  1 26  1  0
  3 27  1  0
  4 28  1  0
  7 29  1  0
  7 30  1  0
  8 31  1  0
  9 32  1  0
 13 33  1  0
 14 34  1  0
 16 35  1  0
 17 36  1  0
 23 37  1  0
M  END
>  <Energy>  (937) 
1416.6327549217285

>  <compound_id>  (937) 
8681

>  <target_id>  (937) 
1

>  <reference_id>  (937) 
107

>  <inspiration_ids>  (937) 
[80, 107]

>  <energy_score>  (937) 
1320.4235100514725

>  <distance_score>  (937) 
13.859142363221638

>  <path>  (937) 
/opt/xchem-fragalysis-2/maxwin/BulkDock/SCRATCH/511020/C8681-P107/C8681-P107.minimised.mol

>  <scratch_subdir>  (937) 
/opt/xchem-fragalysis-2/maxwin/BulkDock/SCRATCH/511020/C8681-P107

>  <fragmenstein_runtime>  (937) 
39.16107749938965

>  <fragmenstein_outcome>  (937) 
too moved

>  <fragmenstein_mode>  (937) 
expansion

>  <fragmenstein_error>  (937) 


$$$$
C8690-P80
     RDKit          3D

 34 36  0  0  0  0  0  0  0  0999 V2000
   -1.3981  -11.1792   20.8878 C   0  0  0  0  0  0  0  0  0  0  0  0
    0.0913  -10.4603   21.7711 C   0  0  0  0  0  0  0  0  0  0  0  0
    0.5774  -11.7194   22.8210 N   0  0  0  0  0  0  0  0  0  0  0  0
    2.1030  -12.1605   23.4227 C   0  0  0  0  0  0  0  0  0  0  0  0
    3.1207  -11.6624   23.1489 O   0  0  0  0  0  0  0  0  0  0  0  0
    1.7132  -13.7611   24.5456 C   0  0  0  0  0  0  0  0  0  0  0  0
    0.6943  -14.8984   23.9407 C   0  0  0  0  0  0  0  0  0  0  0  0
   -0.0060  -15.7402   24.7162 C   0  0  0  0  0  0  0  0  0  0  0  0
    0.1187  -15.6368   26.0707 N   0  0  0  0  0  0  0  0  0  0  0  0
   -0.5624  -16.3050   27.0602 C   0  0  0  0  0  0  0  0  0  0  0  0
   -0.1123  -15.7458   28.2267 C   0  0  0  0  0  0  0  0  0  0  0  0
    0.8318  -14.7757   27.9619 N   0  0  0  0  0  0  0  0  0  0  0  0
    0.9867  -14.7140   26.6423 C   0  0  0  0  0  0  0  0  0  0  0  0
    1.7657  -13.8355   25.8812 N   0  0  0  0  0  0  0  0  0  0  0  0
   -0.6092   -9.1486   21.9453 C   0  0  0  0  0  0  0  0  0  0  0  0
   -1.7417   -8.8955   22.5967 N   0  0  0  0  0  0  0  0  0  0  0  0
   -2.6887   -8.6344   21.6432 C   0  0  0  0  0  0  0  0  0  0  0  0
   -2.0952   -8.6341   20.4095 C   0  0  0  0  0  0  0  0  0  0  0  0
   -0.7405   -8.5648   20.7099 N   0  0  0  0  0  0  0  0  0  0  0  0
    0.2976   -8.2849   19.7618 C   0  0  0  0  0  0  0  0  0  0  0  0
   -2.3362  -10.9271   21.3761 H   0  0  0  0  0  0  0  0  0  0  0  0
   -1.5118  -12.2557   20.8250 H   0  0  0  0  0  0  0  0  0  0  0  0
   -1.5397  -10.8571   19.8562 H   0  0  0  0  0  0  0  0  0  0  0  0
    0.9191  -10.1939   21.1846 H   0  0  0  0  0  0  0  0  0  0  0  0
   -0.1055  -12.3653   23.1478 H   0  0  0  0  0  0  0  0  0  0  0  0
    0.4357  -14.9244   22.8993 H   0  0  0  0  0  0  0  0  0  0  0  0
   -0.7136  -16.4568   24.3209 H   0  0  0  0  0  0  0  0  0  0  0  0
   -1.2878  -17.0760   26.8488 H   0  0  0  0  0  0  0  0  0  0  0  0
   -0.4035  -15.9800   29.2422 H   0  0  0  0  0  0  0  0  0  0  0  0
   -3.7361   -8.5231   21.8912 H   0  0  0  0  0  0  0  0  0  0  0  0
   -2.4828   -8.5549   19.4030 H   0  0  0  0  0  0  0  0  0  0  0  0
   -0.1589   -8.2283   18.7694 H   0  0  0  0  0  0  0  0  0  0  0  0
    1.1665   -8.9129   19.7615 H   0  0  0  0  0  0  0  0  0  0  0  0
    0.9002   -7.4417   20.0542 H   0  0  0  0  0  0  0  0  0  0  0  0
  1  2  1  0
  2  3  1  0
  3  4  1  0
  4  5  2  0
  4  6  1  0
  6  7  1  0
  7  8  2  0
  8  9  1  0
  9 10  1  0
 10 11  2  0
 11 12  1  0
 12 13  2  0
 13 14  1  0
  2 15  1  0
 15 16  2  0
 16 17  1  0
 17 18  2  0
 18 19  1  0
 19 20  1  0
 14  6  2  0
 19 15  1  0
 13  9  1  0
  1 21  1  0
  1 22  1  0
  1 23  1  0
  2 24  1  0
  3 25  1  0
  7 26  1  0
  8 27  1  0
 10 28  1  0
 11 29  1  0
 17 30  1  0
 18 31  1  0
 20 32  1  0
 20 33  1  0
 20 34  1  0
M  END
>  <Energy>  (938) 
291.45217047950928

>  <compound_id>  (938) 
8690

>  <target_id>  (938) 
1

>  <reference_id>  (938) 
80

>  <inspiration_ids>  (938) 
[80, 107]

>  <energy_score>  (938) 
221.47402221754896

>  <distance_score>  (938) 
16.1713017271303

>  <path>  (938) 
/opt/xchem-fragalysis-2/maxwin/BulkDock/SCRATCH/511020/C8690-P80/C8690-P80.minimised.mol

>  <scratch_subdir>  (938) 
/opt/xchem-fragalysis-2/maxwin/BulkDock/SCRATCH/511020/C8690-P80

>  <fragmenstein_runtime>  (938) 
24.22319793701172

>  <fragmenstein_outcome>  (938) 
too moved

>  <fragmenstein_mode>  (938) 
expansion

>  <fragmenstein_error>  (938) 


$$$$
C8690-P107
     RDKit          3D

 34 36  0  0  0  0  0  0  0  0999 V2000
   -6.0464   -9.6124   22.8044 C   0  0  0  0  0  0  0  0  0  0  0  0
   -5.3693  -10.8266   22.1595 C   0  0  0  0  0  0  0  0  0  0  0  0
   -5.5078  -11.9891   23.0902 N   0  0  0  0  0  0  0  0  0  0  0  0
   -5.9464  -13.3521   22.8506 C   0  0  0  0  0  0  0  0  0  0  0  0
   -6.2317  -13.9131   21.8305 O   0  0  0  0  0  0  0  0  0  0  0  0
   -6.2061  -14.2465   24.1296 C   0  0  0  0  0  0  0  0  0  0  0  0
   -5.2761  -15.4180   24.3355 C   0  0  0  0  0  0  0  0  0  0  0  0
   -5.5835  -16.2664   25.3344 C   0  0  0  0  0  0  0  0  0  0  0  0
   -6.7183  -16.0398   26.0985 N   0  0  0  0  0  0  0  0  0  0  0  0
   -7.2296  -16.7454   27.1611 C   0  0  0  0  0  0  0  0  0  0  0  0
   -8.4113  -16.1184   27.4709 C   0  0  0  0  0  0  0  0  0  0  0  0
   -8.6148  -15.0329   26.6526 N   0  0  0  0  0  0  0  0  0  0  0  0
   -7.5660  -14.9597   25.8487 C   0  0  0  0  0  0  0  0  0  0  0  0
   -7.2767  -14.0362   24.8602 N   0  0  0  0  0  0  0  0  0  0  0  0
   -3.9721  -10.3952   21.6263 C   0  0  0  0  0  0  0  0  0  0  0  0
   -3.0499   -9.6635   22.2544 N   0  0  0  0  0  0  0  0  0  0  0  0
   -2.0901   -9.3222   21.3149 C   0  0  0  0  0  0  0  0  0  0  0  0
   -2.4376   -9.8194   20.0899 C   0  0  0  0  0  0  0  0  0  0  0  0
   -3.5669  -10.5597   20.3080 N   0  0  0  0  0  0  0  0  0  0  0  0
   -4.2310  -11.3634   19.3082 C   0  0  0  0  0  0  0  0  0  0  0  0
   -5.5202   -9.3036   23.7151 H   0  0  0  0  0  0  0  0  0  0  0  0
   -7.0797   -9.8459   23.0842 H   0  0  0  0  0  0  0  0  0  0  0  0
   -6.0656   -8.7575   22.1194 H   0  0  0  0  0  0  0  0  0  0  0  0
   -5.9767  -11.1028   21.2895 H   0  0  0  0  0  0  0  0  0  0  0  0
   -5.4363  -11.8351   24.0908 H   0  0  0  0  0  0  0  0  0  0  0  0
   -4.4263  -15.5399   23.6772 H   0  0  0  0  0  0  0  0  0  0  0  0
   -4.9855  -17.1373   25.5727 H   0  0  0  0  0  0  0  0  0  0  0  0
   -6.7296  -17.6067   27.5805 H   0  0  0  0  0  0  0  0  0  0  0  0
   -9.1261  -16.3795   28.2391 H   0  0  0  0  0  0  0  0  0  0  0  0
   -1.2105   -8.7498   21.5806 H   0  0  0  0  0  0  0  0  0  0  0  0
   -1.9642   -9.7559   19.1222 H   0  0  0  0  0  0  0  0  0  0  0  0
   -5.1408  -10.8439   18.9979 H   0  0  0  0  0  0  0  0  0  0  0  0
   -4.4659  -12.3389   19.7412 H   0  0  0  0  0  0  0  0  0  0  0  0
   -3.5662  -11.4978   18.4507 H   0  0  0  0  0  0  0  0  0  0  0  0
  1  2  1  0
  2  3  1  0
  3  4  1  0
  4  5  2  0
  4  6  1  0
  6  7  1  0
  7  8  2  0
  8  9  1  0
  9 10  1  0
 10 11  2  0
 11 12  1  0
 12 13  2  0
 13 14  1  0
  2 15  1  0
 15 16  2  0
 16 17  1  0
 17 18  2  0
 18 19  1  0
 19 20  1  0
 14  6  2  0
 19 15  1  0
 13  9  1  0
  1 21  1  0
  1 22  1  0
  1 23  1  0
  2 24  1  0
  3 25  1  0
  7 26  1  0
  8 27  1  0
 10 28  1  0
 11 29  1  0
 17 30  1  0
 18 31  1  0
 20 32  1  0
 20 33  1  0
 20 34  1  0
M  END
>  <Energy>  (939) 
67.06458015139863

>  <compound_id>  (939) 
8690

>  <target_id>  (939) 
1

>  <reference_id>  (939) 
107

>  <inspiration_ids>  (939) 
[80, 107]

>  <energy_score>  (939) 
-2.9135681105597087

>  <distance_score>  (939) 
13.83486348174148

>  <path>  (939) 
/opt/xchem-fragalysis-2/maxwin/BulkDock/SCRATCH/511020/C8690-P107/C8690-P107.minimised.mol

>  <scratch_subdir>  (939) 
/opt/xchem-fragalysis-2/maxwin/BulkDock/SCRATCH/511020/C8690-P107

>  <fragmenstein_runtime>  (939) 
37.18688106536865

>  <fragmenstein_outcome>  (939) 
too moved

>  <fragmenstein_mode>  (939) 
expansion

>  <fragmenstein_error>  (939) 


$$$$
C8677-P80
     RDKit          3D

 35 37  0  0  0  0  0  0  0  0999 V2000
   -1.4653  -19.0547   21.6091 C   0  0  0  0  0  0  0  0  0  0  0  0
   -2.2374  -18.0596   22.4655 C   0  0  0  0  0  0  0  0  0  0  0  0
   -1.9274  -18.2164   23.8886 N   0  0  0  0  0  0  0  0  0  0  0  0
   -0.9568  -17.1910   24.4350 C   0  0  0  0  0  0  0  0  0  0  0  0
    0.2837  -16.6354   23.6332 C   0  0  0  0  0  0  0  0  0  0  0  0
    0.5626  -16.7155   22.3358 N   0  0  0  0  0  0  0  0  0  0  0  0
    1.8446  -16.2300   22.1736 C   0  0  0  0  0  0  0  0  0  0  0  0
    2.3477  -15.7920   23.3715 C   0  0  0  0  0  0  0  0  0  0  0  0
    1.3204  -15.9517   24.2606 N   0  0  0  0  0  0  0  0  0  0  0  0
    1.3525  -15.5487   25.6457 C   0  0  0  0  0  0  0  0  0  0  0  0
   -2.5621  -19.1714   24.7259 C   0  0  0  0  0  0  0  0  0  0  0  0
   -3.4194  -20.2857   24.1217 C   0  0  0  0  0  0  0  0  0  0  0  0
   -3.8071  -21.2919   24.9161 C   0  0  0  0  0  0  0  0  0  0  0  0
   -3.4977  -21.2373   26.2547 N   0  0  0  0  0  0  0  0  0  0  0  0
   -3.6882  -22.1709   27.2374 C   0  0  0  0  0  0  0  0  0  0  0  0
   -3.0670  -21.6464   28.3433 C   0  0  0  0  0  0  0  0  0  0  0  0
   -2.6229  -20.3750   28.0960 N   0  0  0  0  0  0  0  0  0  0  0  0
   -2.8303  -20.1551   26.8100 C   0  0  0  0  0  0  0  0  0  0  0  0
   -2.3826  -19.1198   26.0323 N   0  0  0  0  0  0  0  0  0  0  0  0
   -0.3889  -19.0063   21.7927 H   0  0  0  0  0  0  0  0  0  0  0  0
   -1.7724  -20.0857   21.8040 H   0  0  0  0  0  0  0  0  0  0  0  0
   -1.6411  -18.8517   20.5480 H   0  0  0  0  0  0  0  0  0  0  0  0
   -3.3140  -18.1805   22.2983 H   0  0  0  0  0  0  0  0  0  0  0  0
   -2.0202  -17.0387   22.1309 H   0  0  0  0  0  0  0  0  0  0  0  0
   -0.5331  -17.6012   25.3596 H   0  0  0  0  0  0  0  0  0  0  0  0
   -1.5534  -16.3141   24.7179 H   0  0  0  0  0  0  0  0  0  0  0  0
    2.3248  -16.2169   21.2051 H   0  0  0  0  0  0  0  0  0  0  0  0
    3.2906  -15.3507   23.6502 H   0  0  0  0  0  0  0  0  0  0  0  0
    2.2094  -14.8930   25.8129 H   0  0  0  0  0  0  0  0  0  0  0  0
    1.4464  -16.4448   26.2639 H   0  0  0  0  0  0  0  0  0  0  0  0
    0.4290  -15.0130   25.8779 H   0  0  0  0  0  0  0  0  0  0  0  0
   -3.6477  -20.2787   23.0672 H   0  0  0  0  0  0  0  0  0  0  0  0
   -4.3487  -22.1554   24.5538 H   0  0  0  0  0  0  0  0  0  0  0  0
   -4.1667  -23.1169   27.0438 H   0  0  0  0  0  0  0  0  0  0  0  0
   -2.9260  -22.1018   29.3150 H   0  0  0  0  0  0  0  0  0  0  0  0
  1  2  1  0
  2  3  1  0
  3  4  1  0
  4  5  1  0
  5  6  2  0
  6  7  1  0
  7  8  2  0
  8  9  1  0
  9 10  1  0
  3 11  1  0
 11 12  1  0
 12 13  2  0
 13 14  1  0
 14 15  1  0
 15 16  2  0
 16 17  1  0
 17 18  2  0
 18 19  1  0
  9  5  1  0
 19 11  2  0
 18 14  1  0
  1 20  1  0
  1 21  1  0
  1 22  1  0
  2 23  1  0
  2 24  1  0
  4 25  1  0
  4 26  1  0
  7 27  1  0
  8 28  1  0
 10 29  1  0
 10 30  1  0
 10 31  1  0
 12 32  1  0
 13 33  1  0
 15 34  1  0
 16 35  1  0
M  END
>  <Energy>  (940) 
11.934840489445484

>  <compound_id>  (940) 
8677

>  <target_id>  (940) 
1

>  <reference_id>  (940) 
80

>  <inspiration_ids>  (940) 
[80, 107]

>  <energy_score>  (940) 
-25.373124149793114

>  <distance_score>  (940) 
14.180373580882224

>  <path>  (940) 
/opt/xchem-fragalysis-2/maxwin/BulkDock/SCRATCH/511020/C8677-P80/C8677-P80.minimised.mol

>  <scratch_subdir>  (940) 
/opt/xchem-fragalysis-2/maxwin/BulkDock/SCRATCH/511020/C8677-P80

>  <fragmenstein_runtime>  (940) 
18.688071489334106

>  <fragmenstein_outcome>  (940) 
too moved

>  <fragmenstein_mode>  (940) 
expansion

>  <fragmenstein_error>  (940) 


$$$$
C8677-P107
     RDKit          3D

 35 37  0  0  0  0  0  0  0  0999 V2000
   -2.4618  -16.5668   24.3442 C   0  0  0  0  0  0  0  0  0  0  0  0
   -2.2742  -15.8999   25.6990 C   0  0  0  0  0  0  0  0  0  0  0  0
   -1.6383  -16.8439   26.6406 N   0  0  0  0  0  0  0  0  0  0  0  0
   -0.1446  -16.5760   26.8003 C   0  0  0  0  0  0  0  0  0  0  0  0
    0.7798  -16.0069   25.6707 C   0  0  0  0  0  0  0  0  0  0  0  0
    1.4160  -14.8419   25.7032 N   0  0  0  0  0  0  0  0  0  0  0  0
    2.2239  -14.7955   24.5921 C   0  0  0  0  0  0  0  0  0  0  0  0
    2.1218  -15.9522   23.8716 C   0  0  0  0  0  0  0  0  0  0  0  0
    1.2193  -16.7145   24.5658 N   0  0  0  0  0  0  0  0  0  0  0  0
    0.8575  -18.0630   24.2015 C   0  0  0  0  0  0  0  0  0  0  0  0
   -2.3966  -17.2499   27.7893 C   0  0  0  0  0  0  0  0  0  0  0  0
   -1.8643  -18.3488   28.6975 C   0  0  0  0  0  0  0  0  0  0  0  0
   -2.5262  -18.6066   29.8369 C   0  0  0  0  0  0  0  0  0  0  0  0
   -3.6888  -17.9097   30.1181 N   0  0  0  0  0  0  0  0  0  0  0  0
   -4.5377  -17.9998   31.1918 C   0  0  0  0  0  0  0  0  0  0  0  0
   -5.5739  -17.1462   30.8969 C   0  0  0  0  0  0  0  0  0  0  0  0
   -5.3600  -16.5162   29.6947 N   0  0  0  0  0  0  0  0  0  0  0  0
   -4.2178  -16.9885   29.2251 C   0  0  0  0  0  0  0  0  0  0  0  0
   -3.5524  -16.6766   28.0672 N   0  0  0  0  0  0  0  0  0  0  0  0
   -1.5192  -16.6336   23.7979 H   0  0  0  0  0  0  0  0  0  0  0  0
   -3.1540  -15.9869   23.7259 H   0  0  0  0  0  0  0  0  0  0  0  0
   -2.8627  -17.5801   24.4472 H   0  0  0  0  0  0  0  0  0  0  0  0
   -3.2566  -15.5678   26.0465 H   0  0  0  0  0  0  0  0  0  0  0  0
   -1.6849  -14.9823   25.5997 H   0  0  0  0  0  0  0  0  0  0  0  0
   -0.0433  -15.8771   27.6420 H   0  0  0  0  0  0  0  0  0  0  0  0
    0.3271  -17.5129   27.1203 H   0  0  0  0  0  0  0  0  0  0  0  0
    2.8244  -13.9345   24.3516 H   0  0  0  0  0  0  0  0  0  0  0  0
    2.5878  -16.2765   22.9522 H   0  0  0  0  0  0  0  0  0  0  0  0
    0.0005  -18.3992   24.7870 H   0  0  0  0  0  0  0  0  0  0  0  0
    1.7168  -18.7098   24.3963 H   0  0  0  0  0  0  0  0  0  0  0  0
    0.6029  -18.0797   23.1385 H   0  0  0  0  0  0  0  0  0  0  0  0
   -0.9653  -18.8735   28.4102 H   0  0  0  0  0  0  0  0  0  0  0  0
   -2.2033  -19.3486   30.5549 H   0  0  0  0  0  0  0  0  0  0  0  0
   -4.3625  -18.6610   32.0273 H   0  0  0  0  0  0  0  0  0  0  0  0
   -6.4622  -16.9545   31.4834 H   0  0  0  0  0  0  0  0  0  0  0  0
  1  2  1  0
  2  3  1  0
  3  4  1  0
  4  5  1  0
  5  6  2  0
  6  7  1  0
  7  8  2  0
  8  9  1  0
  9 10  1  0
  3 11  1  0
 11 12  1  0
 12 13  2  0
 13 14  1  0
 14 15  1  0
 15 16  2  0
 16 17  1  0
 17 18  2  0
 18 19  1  0
  9  5  1  0
 19 11  2  0
 18 14  1  0
  1 20  1  0
  1 21  1  0
  1 22  1  0
  2 23  1  0
  2 24  1  0
  4 25  1  0
  4 26  1  0
  7 27  1  0
  8 28  1  0
 10 29  1  0
 10 30  1  0
 10 31  1  0
 12 32  1  0
 13 33  1  0
 15 34  1  0
 16 35  1  0
M  END
>  <Energy>  (941) 
15.320658127635838

>  <compound_id>  (941) 
8677

>  <target_id>  (941) 
1

>  <reference_id>  (941) 
107

>  <inspiration_ids>  (941) 
[80, 107]

>  <energy_score>  (941) 
-21.987306511604856

>  <distance_score>  (941) 
14.308236067958159

>  <path>  (941) 
/opt/xchem-fragalysis-2/maxwin/BulkDock/SCRATCH/511020/C8677-P107/C8677-P107.minimised.mol

>  <scratch_subdir>  (941) 
/opt/xchem-fragalysis-2/maxwin/BulkDock/SCRATCH/511020/C8677-P107

>  <fragmenstein_runtime>  (941) 
20.447988271713257

>  <fragmenstein_outcome>  (941) 
too moved

>  <fragmenstein_mode>  (941) 
expansion

>  <fragmenstein_error>  (941) 


$$$$
C8691-P80
     RDKit          3D

 36 39  0  0  0  0  0  0  0  0999 V2000
   -7.8232   -6.6089   26.8066 C   0  0  0  0  0  0  0  0  0  0  0  0
   -7.6233   -6.8499   25.3945 N   0  0  0  0  0  0  0  0  0  0  0  0
   -7.0493   -5.9534   24.5322 C   0  0  0  0  0  0  0  0  0  0  0  0
   -7.2465   -6.5008   23.2963 C   0  0  0  0  0  0  0  0  0  0  0  0
   -7.7733   -7.7736   23.3992 N   0  0  0  0  0  0  0  0  0  0  0  0
   -8.0760   -7.9611   24.6782 C   0  0  0  0  0  0  0  0  0  0  0  0
   -8.8464   -9.1414   25.3374 C   0  0  0  0  0  0  0  0  0  0  0  0
  -10.2980   -9.2726   24.8860 C   0  0  0  0  0  0  0  0  0  0  0  0
  -10.7424  -10.6063   25.5194 C   0  0  0  0  0  0  0  0  0  0  0  0
   -9.5407  -11.4578   25.5364 N   0  0  0  0  0  0  0  0  0  0  0  0
   -9.5531  -12.7432   26.1196 C   0  0  0  0  0  0  0  0  0  0  0  0
   -8.3367  -13.6538   26.0472 C   0  0  0  0  0  0  0  0  0  0  0  0
   -8.3930  -14.8375   26.6801 C   0  0  0  0  0  0  0  0  0  0  0  0
   -9.5452  -15.1798   27.3596 N   0  0  0  0  0  0  0  0  0  0  0  0
   -9.8300  -16.2841   28.1157 C   0  0  0  0  0  0  0  0  0  0  0  0
  -11.1099  -16.0821   28.5713 C   0  0  0  0  0  0  0  0  0  0  0  0
  -11.6205  -14.9102   28.0879 N   0  0  0  0  0  0  0  0  0  0  0  0
  -10.6600  -14.3556   27.3737 C   0  0  0  0  0  0  0  0  0  0  0  0
  -10.6502  -13.1465   26.7344 N   0  0  0  0  0  0  0  0  0  0  0  0
   -8.3764  -10.6195   25.1394 C   0  0  0  0  0  0  0  0  0  0  0  0
   -8.8967   -6.6111   27.0107 H   0  0  0  0  0  0  0  0  0  0  0  0
   -7.3151   -7.3960   27.3686 H   0  0  0  0  0  0  0  0  0  0  0  0
   -7.3999   -5.6372   27.0742 H   0  0  0  0  0  0  0  0  0  0  0  0
   -6.6687   -4.9914   24.8466 H   0  0  0  0  0  0  0  0  0  0  0  0
   -7.0742   -6.0186   22.3474 H   0  0  0  0  0  0  0  0  0  0  0  0
   -8.8550   -8.9671   26.4218 H   0  0  0  0  0  0  0  0  0  0  0  0
  -10.3621   -9.3332   23.7923 H   0  0  0  0  0  0  0  0  0  0  0  0
  -10.9242   -8.4376   25.2153 H   0  0  0  0  0  0  0  0  0  0  0  0
  -11.0890  -10.4320   26.5446 H   0  0  0  0  0  0  0  0  0  0  0  0
  -11.5504  -11.0645   24.9403 H   0  0  0  0  0  0  0  0  0  0  0  0
   -7.4719  -13.3205   25.4914 H   0  0  0  0  0  0  0  0  0  0  0  0
   -7.5710  -15.5404   26.6947 H   0  0  0  0  0  0  0  0  0  0  0  0
   -9.1127  -17.0767   28.2609 H   0  0  0  0  0  0  0  0  0  0  0  0
  -11.7116  -16.7175   29.2024 H   0  0  0  0  0  0  0  0  0  0  0  0
   -8.1391  -10.8255   24.0911 H   0  0  0  0  0  0  0  0  0  0  0  0
   -7.5085  -10.8376   25.7674 H   0  0  0  0  0  0  0  0  0  0  0  0
  1  2  1  0
  2  3  1  0
  3  4  2  0
  4  5  1  0
  5  6  2  0
  6  7  1  0
  7  8  1  0
  8  9  1  0
  9 10  1  0
 10 11  1  0
 11 12  1  0
 12 13  2  0
 13 14  1  0
 14 15  1  0
 15 16  2  0
 16 17  1  0
 17 18  2  0
 18 19  1  0
 10 20  1  0
  6  2  1  0
 20  7  1  0
 19 11  2  0
 18 14  1  0
  1 21  1  0
  1 22  1  0
  1 23  1  0
  3 24  1  0
  4 25  1  0
  7 26  1  0
  8 27  1  0
  8 28  1  0
  9 29  1  0
  9 30  1  0
 12 31  1  0
 13 32  1  0
 15 33  1  0
 16 34  1  0
 20 35  1  0
 20 36  1  0
M  END
>  <Energy>  (942) 
13.643658665856497

>  <compound_id>  (942) 
8691

>  <target_id>  (942) 
1

>  <reference_id>  (942) 
80

>  <inspiration_ids>  (942) 
[80, 107]

>  <energy_score>  (942) 
-20.93780772012576

>  <distance_score>  (942) 
15.531520557114726

>  <path>  (942) 
/opt/xchem-fragalysis-2/maxwin/BulkDock/SCRATCH/511020/C8691-P80/C8691-P80.minimised.mol

>  <scratch_subdir>  (942) 
/opt/xchem-fragalysis-2/maxwin/BulkDock/SCRATCH/511020/C8691-P80

>  <fragmenstein_runtime>  (942) 
24.67792010307312

>  <fragmenstein_outcome>  (942) 
too moved

>  <fragmenstein_mode>  (942) 
expansion

>  <fragmenstein_error>  (942) 


$$$$
C8691-P107
     RDKit          3D

 36 39  0  0  0  0  0  0  0  0999 V2000
   -0.0080   -8.3217   19.8370 C   0  0  0  0  0  0  0  0  0  0  0  0
   -1.2733   -8.8954   19.4393 N   0  0  0  0  0  0  0  0  0  0  0  0
   -1.6053   -8.9854   18.1335 C   0  0  0  0  0  0  0  0  0  0  0  0
   -2.7134   -9.7477   18.0645 C   0  0  0  0  0  0  0  0  0  0  0  0
   -2.9623  -10.2818   19.2874 N   0  0  0  0  0  0  0  0  0  0  0  0
   -1.9715   -9.8911   20.0442 C   0  0  0  0  0  0  0  0  0  0  0  0
   -1.1614  -10.8742   20.7333 C   0  0  0  0  0  0  0  0  0  0  0  0
   -0.1003  -10.3353   21.6251 C   0  0  0  0  0  0  0  0  0  0  0  0
    0.5153  -11.4131   22.5767 C   0  0  0  0  0  0  0  0  0  0  0  0
   -0.2661  -12.8288   22.5556 N   0  0  0  0  0  0  0  0  0  0  0  0
   -0.3117  -14.4570   23.2464 C   0  0  0  0  0  0  0  0  0  0  0  0
    0.5304  -14.9366   24.4631 C   0  0  0  0  0  0  0  0  0  0  0  0
    0.0592  -15.9280   25.2457 C   0  0  0  0  0  0  0  0  0  0  0  0
   -1.1068  -16.5823   24.9011 N   0  0  0  0  0  0  0  0  0  0  0  0
   -1.8526  -17.5140   25.5883 C   0  0  0  0  0  0  0  0  0  0  0  0
   -2.9442  -17.7571   24.7909 C   0  0  0  0  0  0  0  0  0  0  0  0
   -2.8695  -17.0177   23.6322 N   0  0  0  0  0  0  0  0  0  0  0  0
   -1.7365  -16.3269   23.6959 C   0  0  0  0  0  0  0  0  0  0  0  0
   -1.2675  -15.3455   22.8409 N   0  0  0  0  0  0  0  0  0  0  0  0
   -1.5649  -12.1515   21.2153 C   0  0  0  0  0  0  0  0  0  0  0  0
    0.9216   -8.6804   19.4016 H   0  0  0  0  0  0  0  0  0  0  0  0
   -0.0692   -7.4337   19.3073 H   0  0  0  0  0  0  0  0  0  0  0  0
    0.0576   -8.0903   20.8979 H   0  0  0  0  0  0  0  0  0  0  0  0
   -0.9467   -8.5547   17.4102 H   0  0  0  0  0  0  0  0  0  0  0  0
   -3.3311   -9.9811   17.2110 H   0  0  0  0  0  0  0  0  0  0  0  0
   -0.9725  -11.4612   19.8404 H   0  0  0  0  0  0  0  0  0  0  0  0
   -0.5895   -9.5048   22.1747 H   0  0  0  0  0  0  0  0  0  0  0  0
    0.7598   -9.8537   21.1868 H   0  0  0  0  0  0  0  0  0  0  0  0
    1.5437  -11.6749   22.8447 H   0  0  0  0  0  0  0  0  0  0  0  0
    0.1512  -10.6795   23.1912 H   0  0  0  0  0  0  0  0  0  0  0  0
    1.4371  -14.3915   24.6895 H   0  0  0  0  0  0  0  0  0  0  0  0
    0.5572  -16.2365   26.1544 H   0  0  0  0  0  0  0  0  0  0  0  0
   -1.5548  -17.8878   26.5563 H   0  0  0  0  0  0  0  0  0  0  0  0
   -3.7767  -18.4217   24.9798 H   0  0  0  0  0  0  0  0  0  0  0  0
   -2.5030  -11.7127   21.5173 H   0  0  0  0  0  0  0  0  0  0  0  0
   -1.8852  -12.9572   20.5369 H   0  0  0  0  0  0  0  0  0  0  0  0
  1  2  1  0
  2  3  1  0
  3  4  2  0
  4  5  1  0
  5  6  2  0
  6  7  1  0
  7  8  1  0
  8  9  1  0
  9 10  1  0
 10 11  1  0
 11 12  1  0
 12 13  2  0
 13 14  1  0
 14 15  1  0
 15 16  2  0
 16 17  1  0
 17 18  2  0
 18 19  1  0
 10 20  1  0
  6  2  1  0
 20  7  1  0
 19 11  2  0
 18 14  1  0
  1 21  1  0
  1 22  1  0
  1 23  1  0
  3 24  1  0
  4 25  1  0
  7 26  1  0
  8 27  1  0
  8 28  1  0
  9 29  1  0
  9 30  1  0
 12 31  1  0
 13 32  1  0
 15 33  1  0
 16 34  1  0
 20 35  1  0
 20 36  1  0
M  END
>  <Energy>  (943) 
297.27406535560186

>  <compound_id>  (943) 
8691

>  <target_id>  (943) 
1

>  <reference_id>  (943) 
107

>  <inspiration_ids>  (943) 
[80, 107]

>  <energy_score>  (943) 
262.6925989696124

>  <distance_score>  (943) 
15.353841569525324

>  <path>  (943) 
/opt/xchem-fragalysis-2/maxwin/BulkDock/SCRATCH/511020/C8691-P107/C8691-P107.minimised.mol

>  <scratch_subdir>  (943) 
/opt/xchem-fragalysis-2/maxwin/BulkDock/SCRATCH/511020/C8691-P107

>  <fragmenstein_runtime>  (943) 
17.810593605041504

>  <fragmenstein_outcome>  (943) 
too moved

>  <fragmenstein_mode>  (943) 
expansion

>  <fragmenstein_error>  (943) 


$$$$
C8686-P80
     RDKit          3D

 32 34  0  0  0  0  0  0  0  0999 V2000
    4.1799  -10.2160   12.7221 C   0  0  0  0  0  0  0  0  0  0  0  0
    3.1124  -10.8153   14.0334 N   0  0  0  0  0  0  0  0  0  0  0  0
    4.0866  -11.2097   14.9519 C   0  0  0  0  0  0  0  0  0  0  0  0
    3.4144  -11.6058   16.0334 C   0  0  0  0  0  0  0  0  0  0  0  0
    1.9196  -12.5008   15.3696 N   0  0  0  0  0  0  0  0  0  0  0  0
    1.5570  -11.9497   14.0913 C   0  0  0  0  0  0  0  0  0  0  0  0
    0.1137  -12.7639   13.1595 C   0  0  0  0  0  0  0  0  0  0  0  0
   -0.6114  -14.4483   13.6149 C   0  0  0  0  0  0  0  0  0  0  0  0
   -2.1533  -14.9674   13.7227 N   0  0  0  0  0  0  0  0  0  0  0  0
   -2.7334  -15.8497   14.7546 C   0  0  0  0  0  0  0  0  0  0  0  0
   -2.0832  -17.1866   15.1022 C   0  0  0  0  0  0  0  0  0  0  0  0
   -2.6464  -17.9854   16.0340 C   0  0  0  0  0  0  0  0  0  0  0  0
   -3.8091  -17.5865   16.6668 N   0  0  0  0  0  0  0  0  0  0  0  0
   -4.5313  -18.1897   17.6754 C   0  0  0  0  0  0  0  0  0  0  0  0
   -5.6253  -17.3830   17.8618 C   0  0  0  0  0  0  0  0  0  0  0  0
   -5.5778  -16.3057   17.0008 N   0  0  0  0  0  0  0  0  0  0  0  0
   -4.4487  -16.4059   16.3030 C   0  0  0  0  0  0  0  0  0  0  0  0
   -3.8987  -15.5557   15.3385 N   0  0  0  0  0  0  0  0  0  0  0  0
    4.5359   -9.2774   13.1565 H   0  0  0  0  0  0  0  0  0  0  0  0
    4.9652  -10.9821   12.6793 H   0  0  0  0  0  0  0  0  0  0  0  0
    3.5925  -10.1709   11.7966 H   0  0  0  0  0  0  0  0  0  0  0  0
    5.0684  -10.9558   14.6371 H   0  0  0  0  0  0  0  0  0  0  0  0
    3.5489  -11.7218   17.1018 H   0  0  0  0  0  0  0  0  0  0  0  0
   -0.7276  -12.0719   13.1861 H   0  0  0  0  0  0  0  0  0  0  0  0
    0.4163  -12.8295   12.1066 H   0  0  0  0  0  0  0  0  0  0  0  0
   -0.1781  -15.1060   12.8512 H   0  0  0  0  0  0  0  0  0  0  0  0
   -0.2849  -14.7796   14.5908 H   0  0  0  0  0  0  0  0  0  0  0  0
   -2.8154  -14.2913   13.3628 H   0  0  0  0  0  0  0  0  0  0  0  0
   -1.1665  -17.4331   14.5823 H   0  0  0  0  0  0  0  0  0  0  0  0
   -2.2124  -18.9304   16.3313 H   0  0  0  0  0  0  0  0  0  0  0  0
   -4.2140  -19.1135   18.1348 H   0  0  0  0  0  0  0  0  0  0  0  0
   -6.4476  -17.5114   18.5528 H   0  0  0  0  0  0  0  0  0  0  0  0
  1  2  1  0
  2  3  1  0
  3  4  2  0
  4  5  1  0
  5  6  2  0
  6  7  1  0
  7  8  1  0
  8  9  1  0
  9 10  1  0
 10 11  1  0
 11 12  2  0
 12 13  1  0
 13 14  1  0
 14 15  2  0
 15 16  1  0
 16 17  2  0
 17 18  1  0
  6  2  1  0
 18 10  2  0
 17 13  1  0
  1 19  1  0
  1 20  1  0
  1 21  1  0
  3 22  1  0
  4 23  1  0
  7 24  1  0
  7 25  1  0
  8 26  1  0
  8 27  1  0
  9 28  1  0
 11 29  1  0
 12 30  1  0
 14 31  1  0
 15 32  1  0
M  END
>  <Energy>  (944) 
340.73771563980443

>  <compound_id>  (944) 
8686

>  <target_id>  (944) 
1

>  <reference_id>  (944) 
80

>  <inspiration_ids>  (944) 
[80, 107]

>  <energy_score>  (944) 
316.98866719387456

>  <distance_score>  (944) 
16.462292058640436

>  <path>  (944) 
/opt/xchem-fragalysis-2/maxwin/BulkDock/SCRATCH/511020/C8686-P80/C8686-P80.minimised.mol

>  <scratch_subdir>  (944) 
/opt/xchem-fragalysis-2/maxwin/BulkDock/SCRATCH/511020/C8686-P80

>  <fragmenstein_runtime>  (944) 
12.97060513496399

>  <fragmenstein_outcome>  (944) 
too moved

>  <fragmenstein_mode>  (944) 
expansion

>  <fragmenstein_error>  (944) 


$$$$
C8686-P107
     RDKit          3D

 32 34  0  0  0  0  0  0  0  0999 V2000
    4.2758   -7.2020   18.1117 C   0  0  0  0  0  0  0  0  0  0  0  0
    2.4795   -7.7617   18.3608 N   0  0  0  0  0  0  0  0  0  0  0  0
    2.0392   -8.2906   17.1865 C   0  0  0  0  0  0  0  0  0  0  0  0
    2.6716   -9.4013   17.6405 C   0  0  0  0  0  0  0  0  0  0  0  0
    2.1385   -9.6122   18.8189 N   0  0  0  0  0  0  0  0  0  0  0  0
    1.3129   -8.6928   19.2353 C   0  0  0  0  0  0  0  0  0  0  0  0
    0.0443   -9.3067   20.6600 C   0  0  0  0  0  0  0  0  0  0  0  0
   -1.3371  -10.8403   20.6456 C   0  0  0  0  0  0  0  0  0  0  0  0
   -1.9245  -12.7066   20.5022 N   0  0  0  0  0  0  0  0  0  0  0  0
   -2.1068  -14.4656   21.0564 C   0  0  0  0  0  0  0  0  0  0  0  0
   -1.2542  -15.3168   22.4244 C   0  0  0  0  0  0  0  0  0  0  0  0
   -1.7726  -16.3629   23.0830 C   0  0  0  0  0  0  0  0  0  0  0  0
   -2.9507  -16.8774   22.6343 N   0  0  0  0  0  0  0  0  0  0  0  0
   -3.7949  -17.7960   23.2090 C   0  0  0  0  0  0  0  0  0  0  0  0
   -4.8686  -17.8569   22.3590 C   0  0  0  0  0  0  0  0  0  0  0  0
   -4.6709  -17.0230   21.2802 N   0  0  0  0  0  0  0  0  0  0  0  0
   -3.4803  -16.4526   21.4302 C   0  0  0  0  0  0  0  0  0  0  0  0
   -2.8723  -15.4824   20.6208 N   0  0  0  0  0  0  0  0  0  0  0  0
    4.4600   -6.4206   18.8151 H   0  0  0  0  0  0  0  0  0  0  0  0
    4.8814   -8.0782   18.3714 H   0  0  0  0  0  0  0  0  0  0  0  0
    4.4624   -6.7479   17.1280 H   0  0  0  0  0  0  0  0  0  0  0  0
    1.0077   -8.1829   16.8605 H   0  0  0  0  0  0  0  0  0  0  0  0
    3.1960  -10.2072   17.1374 H   0  0  0  0  0  0  0  0  0  0  0  0
    0.7091   -9.5312   21.4758 H   0  0  0  0  0  0  0  0  0  0  0  0
   -0.5380   -8.4250   20.8854 H   0  0  0  0  0  0  0  0  0  0  0  0
   -1.8676  -10.5368   19.7247 H   0  0  0  0  0  0  0  0  0  0  0  0
   -2.0243  -10.4836   21.4076 H   0  0  0  0  0  0  0  0  0  0  0  0
   -2.4776  -12.6461   19.6441 H   0  0  0  0  0  0  0  0  0  0  0  0
   -0.3087  -14.8855   22.7498 H   0  0  0  0  0  0  0  0  0  0  0  0
   -1.3095  -16.8083   23.9534 H   0  0  0  0  0  0  0  0  0  0  0  0
   -3.5710  -18.2861   24.1449 H   0  0  0  0  0  0  0  0  0  0  0  0
   -5.7677  -18.4524   22.4484 H   0  0  0  0  0  0  0  0  0  0  0  0
  1  2  1  0
  2  3  1  0
  3  4  2  0
  4  5  1  0
  5  6  2  0
  6  7  1  0
  7  8  1  0
  8  9  1  0
  9 10  1  0
 10 11  1  0
 11 12  2  0
 12 13  1  0
 13 14  1  0
 14 15  2  0
 15 16  1  0
 16 17  2  0
 17 18  1  0
  6  2  1  0
 18 10  2  0
 17 13  1  0
  1 19  1  0
  1 20  1  0
  1 21  1  0
  3 22  1  0
  4 23  1  0
  7 24  1  0
  7 25  1  0
  8 26  1  0
  8 27  1  0
  9 28  1  0
 11 29  1  0
 12 30  1  0
 14 31  1  0
 15 32  1  0
M  END
>  <Energy>  (945) 
679.69782491282785

>  <compound_id>  (945) 
8686

>  <target_id>  (945) 
1

>  <reference_id>  (945) 
107

>  <inspiration_ids>  (945) 
[80, 107]

>  <energy_score>  (945) 
655.9487764669093

>  <distance_score>  (945) 
13.865782358090476

>  <path>  (945) 
/opt/xchem-fragalysis-2/maxwin/BulkDock/SCRATCH/511020/C8686-P107/C8686-P107.minimised.mol

>  <scratch_subdir>  (945) 
/opt/xchem-fragalysis-2/maxwin/BulkDock/SCRATCH/511020/C8686-P107

>  <fragmenstein_runtime>  (945) 
14.719369888305664

>  <fragmenstein_outcome>  (945) 
too moved

>  <fragmenstein_mode>  (945) 
expansion

>  <fragmenstein_error>  (945) 


$$$$
C8692-P80
     RDKit          3D

 37 39  0  0  0  0  0  0  0  0999 V2000
    4.8055   -8.3494   12.6539 C   0  0  0  0  0  0  0  0  0  0  0  0
    4.9762   -9.2493   13.7578 N   0  0  0  0  0  0  0  0  0  0  0  0
    5.6845  -10.4050   13.7310 C   0  0  0  0  0  0  0  0  0  0  0  0
    5.4253  -11.1334   14.7919 N   0  0  0  0  0  0  0  0  0  0  0  0
    4.5413  -10.4131   15.5704 C   0  0  0  0  0  0  0  0  0  0  0  0
    4.1294  -10.7839   17.0240 C   0  0  0  0  0  0  0  0  0  0  0  0
    3.2592  -12.2751   17.7784 C   0  0  0  0  0  0  0  0  0  0  0  0
    1.8835  -13.7038   18.1941 N   0  0  0  0  0  0  0  0  0  0  0  0
    0.0507  -13.6840   18.1498 C   0  0  0  0  0  0  0  0  0  0  0  0
   -0.7171  -12.8240   17.7508 O   0  0  0  0  0  0  0  0  0  0  0  0
   -1.0411  -15.2345   19.0877 C   0  0  0  0  0  0  0  0  0  0  0  0
   -0.2710  -16.5054   20.1532 C   0  0  0  0  0  0  0  0  0  0  0  0
   -0.9500  -17.6315   19.8498 C   0  0  0  0  0  0  0  0  0  0  0  0
   -2.2597  -17.8302   19.9907 N   0  0  0  0  0  0  0  0  0  0  0  0
   -3.1462  -18.8621   19.7961 C   0  0  0  0  0  0  0  0  0  0  0  0
   -4.2865  -18.3566   20.3410 C   0  0  0  0  0  0  0  0  0  0  0  0
   -3.9854  -17.0808   20.7421 N   0  0  0  0  0  0  0  0  0  0  0  0
   -2.9211  -16.6826   20.0222 C   0  0  0  0  0  0  0  0  0  0  0  0
   -2.3125  -15.4826   19.4645 N   0  0  0  0  0  0  0  0  0  0  0  0
    4.1990  -13.1136   18.6400 C   0  0  0  0  0  0  0  0  0  0  0  0
    5.0217  -12.7642   19.4813 O   0  0  0  0  0  0  0  0  0  0  0  0
    4.0307  -14.4531   18.2446 O   0  0  0  0  0  0  0  0  0  0  0  0
    4.3599   -9.1705   14.9677 C   0  0  0  0  0  0  0  0  0  0  0  0
    3.9273   -8.6675   12.0858 H   0  0  0  0  0  0  0  0  0  0  0  0
    4.6516   -7.3408   13.0410 H   0  0  0  0  0  0  0  0  0  0  0  0
    5.6944   -8.3996   12.0217 H   0  0  0  0  0  0  0  0  0  0  0  0
    6.3301  -10.6929   12.9116 H   0  0  0  0  0  0  0  0  0  0  0  0
    5.1191  -10.6829   17.5106 H   0  0  0  0  0  0  0  0  0  0  0  0
    3.5522   -9.8989   17.3422 H   0  0  0  0  0  0  0  0  0  0  0  0
    2.9705  -11.9014   16.7605 H   0  0  0  0  0  0  0  0  0  0  0  0
    2.2267  -14.5498   18.6714 H   0  0  0  0  0  0  0  0  0  0  0  0
   -0.2750  -16.2441   21.1938 H   0  0  0  0  0  0  0  0  0  0  0  0
   -0.8485  -18.0205   18.8298 H   0  0  0  0  0  0  0  0  0  0  0  0
   -2.8830  -19.8313   19.4010 H   0  0  0  0  0  0  0  0  0  0  0  0
   -5.2401  -18.8270   20.5395 H   0  0  0  0  0  0  0  0  0  0  0  0
    3.3721  -14.4206   17.5210 H   0  0  0  0  0  0  0  0  0  0  0  0
    3.8144   -8.2932   15.2864 H   0  0  0  0  0  0  0  0  0  0  0  0
  1  2  1  0
  2  3  1  0
  3  4  2  0
  4  5  1  0
  5  6  1  0
  6  7  1  0
  7  8  1  0
  8  9  1  0
  9 10  2  0
  9 11  1  0
 11 12  1  0
 12 13  2  0
 13 14  1  0
 14 15  1  0
 15 16  2  0
 16 17  1  0
 17 18  2  0
 18 19  1  0
  7 20  1  0
 20 21  2  0
 20 22  1  0
  5 23  2  0
 23  2  1  0
 19 11  2  0
 18 14  1  0
  1 24  1  0
  1 25  1  0
  1 26  1  0
  3 27  1  0
  6 28  1  0
  6 29  1  0
  7 30  1  0
  8 31  1  0
 12 32  1  0
 13 33  1  0
 15 34  1  0
 16 35  1  0
 22 36  1  0
 23 37  1  0
M  END
>  <Energy>  (946) 
635.86067029466085

>  <compound_id>  (946) 
8692

>  <target_id>  (946) 
1

>  <reference_id>  (946) 
80

>  <inspiration_ids>  (946) 
[80, 107]

>  <energy_score>  (946) 
544.039518762003

>  <distance_score>  (946) 
14.606858947753516

>  <path>  (946) 
/opt/xchem-fragalysis-2/maxwin/BulkDock/SCRATCH/511020/C8692-P80/C8692-P80.minimised.mol

>  <scratch_subdir>  (946) 
/opt/xchem-fragalysis-2/maxwin/BulkDock/SCRATCH/511020/C8692-P80

>  <fragmenstein_runtime>  (946) 
27.02485728263855

>  <fragmenstein_outcome>  (946) 
too moved

>  <fragmenstein_mode>  (946) 
expansion

>  <fragmenstein_error>  (946) 


$$$$
C8692-P107
     RDKit          3D

 37 39  0  0  0  0  0  0  0  0999 V2000
    8.7032  -10.6423   25.7003 C   0  0  0  0  0  0  0  0  0  0  0  0
    8.1163  -11.9382   25.9151 N   0  0  0  0  0  0  0  0  0  0  0  0
    8.5944  -13.1216   25.4478 C   0  0  0  0  0  0  0  0  0  0  0  0
    7.8165  -14.1271   25.8070 N   0  0  0  0  0  0  0  0  0  0  0  0
    6.7798  -13.5887   26.5437 C   0  0  0  0  0  0  0  0  0  0  0  0
    5.5163  -14.3744   26.9388 C   0  0  0  0  0  0  0  0  0  0  0  0
    5.4859  -15.7112   27.7627 C   0  0  0  0  0  0  0  0  0  0  0  0
    4.0757  -16.3277   27.9927 N   0  0  0  0  0  0  0  0  0  0  0  0
    3.3418  -16.6086   29.2259 C   0  0  0  0  0  0  0  0  0  0  0  0
    3.6109  -16.3608   30.3672 O   0  0  0  0  0  0  0  0  0  0  0  0
    1.9394  -17.4062   29.0679 C   0  0  0  0  0  0  0  0  0  0  0  0
    1.9987  -18.8491   28.6219 C   0  0  0  0  0  0  0  0  0  0  0  0
    0.8553  -19.5608   28.6991 C   0  0  0  0  0  0  0  0  0  0  0  0
   -0.3112  -18.9528   29.1450 N   0  0  0  0  0  0  0  0  0  0  0  0
   -1.5715  -19.4704   29.3331 C   0  0  0  0  0  0  0  0  0  0  0  0
   -2.3330  -18.4143   29.7725 C   0  0  0  0  0  0  0  0  0  0  0  0
   -1.5731  -17.2682   29.8389 N   0  0  0  0  0  0  0  0  0  0  0  0
   -0.3396  -17.6033   29.4902 C   0  0  0  0  0  0  0  0  0  0  0  0
    0.8145  -16.8358   29.4519 N   0  0  0  0  0  0  0  0  0  0  0  0
    6.2398  -16.7805   26.9974 C   0  0  0  0  0  0  0  0  0  0  0  0
    5.7469  -17.5027   26.1378 O   0  0  0  0  0  0  0  0  0  0  0  0
    7.5274  -16.9036   27.3611 O   0  0  0  0  0  0  0  0  0  0  0  0
    6.9932  -12.2167   26.6448 C   0  0  0  0  0  0  0  0  0  0  0  0
    7.9241   -9.8788   25.7712 H   0  0  0  0  0  0  0  0  0  0  0  0
    9.4644  -10.4797   26.4672 H   0  0  0  0  0  0  0  0  0  0  0  0
    9.1531  -10.6144   24.7045 H   0  0  0  0  0  0  0  0  0  0  0  0
    9.4960  -13.2079   24.8551 H   0  0  0  0  0  0  0  0  0  0  0  0
    4.9603  -14.5518   26.0100 H   0  0  0  0  0  0  0  0  0  0  0  0
    4.9269  -13.6975   27.5634 H   0  0  0  0  0  0  0  0  0  0  0  0
    5.9282  -15.5760   28.7551 H   0  0  0  0  0  0  0  0  0  0  0  0
    3.5903  -16.7548   27.2140 H   0  0  0  0  0  0  0  0  0  0  0  0
    2.9473  -19.2652   28.3098 H   0  0  0  0  0  0  0  0  0  0  0  0
    0.7982  -20.6099   28.4370 H   0  0  0  0  0  0  0  0  0  0  0  0
   -1.8039  -20.5098   29.1550 H   0  0  0  0  0  0  0  0  0  0  0  0
   -3.3821  -18.4109   30.0436 H   0  0  0  0  0  0  0  0  0  0  0  0
    7.9255  -17.5380   26.7303 H   0  0  0  0  0  0  0  0  0  0  0  0
    6.4176  -11.4397   27.1260 H   0  0  0  0  0  0  0  0  0  0  0  0
  1  2  1  0
  2  3  1  0
  3  4  2  0
  4  5  1  0
  5  6  1  0
  6  7  1  0
  7  8  1  0
  8  9  1  0
  9 10  2  0
  9 11  1  0
 11 12  1  0
 12 13  2  0
 13 14  1  0
 14 15  1  0
 15 16  2  0
 16 17  1  0
 17 18  2  0
 18 19  1  0
  7 20  1  0
 20 21  2  0
 20 22  1  0
  5 23  2  0
 23  2  1  0
 19 11  2  0
 18 14  1  0
  1 24  1  0
  1 25  1  0
  1 26  1  0
  3 27  1  0
  6 28  1  0
  6 29  1  0
  7 30  1  0
  8 31  1  0
 12 32  1  0
 13 33  1  0
 15 34  1  0
 16 35  1  0
 22 36  1  0
 23 37  1  0
M  END
>  <Energy>  (947) 
85.843153729451856

>  <compound_id>  (947) 
8692

>  <target_id>  (947) 
1

>  <reference_id>  (947) 
107

>  <inspiration_ids>  (947) 
[80, 107]

>  <energy_score>  (947) 
-5.977997803204801

>  <distance_score>  (947) 
14.44360484166579

>  <path>  (947) 
/opt/xchem-fragalysis-2/maxwin/BulkDock/SCRATCH/511020/C8692-P107/C8692-P107.minimised.mol

>  <scratch_subdir>  (947) 
/opt/xchem-fragalysis-2/maxwin/BulkDock/SCRATCH/511020/C8692-P107

>  <fragmenstein_runtime>  (947) 
46.705013275146484

>  <fragmenstein_outcome>  (947) 
too moved

>  <fragmenstein_mode>  (947) 
expansion

>  <fragmenstein_error>  (947) 


$$$$
C8693-P80
     RDKit          3D

 28 30  0  0  0  0  0  0  0  0999 V2000
   -2.9889   -9.3456   19.9228 C   0  0  0  0  0  0  0  0  0  0  0  0
   -3.5779   -9.6671   21.1986 N   0  0  0  0  0  0  0  0  0  0  0  0
   -3.4112   -8.9800   22.3633 C   0  0  0  0  0  0  0  0  0  0  0  0
   -3.9973   -9.6169   23.3666 N   0  0  0  0  0  0  0  0  0  0  0  0
   -4.6743  -10.7036   22.8232 C   0  0  0  0  0  0  0  0  0  0  0  0
   -5.3400  -11.6395   23.6180 N   0  0  0  0  0  0  0  0  0  0  0  0
   -5.9353  -12.9268   23.2819 C   0  0  0  0  0  0  0  0  0  0  0  0
   -6.0739  -13.4729   22.2210 O   0  0  0  0  0  0  0  0  0  0  0  0
   -6.3917  -13.8292   24.4976 C   0  0  0  0  0  0  0  0  0  0  0  0
   -5.5772  -15.0958   24.6854 C   0  0  0  0  0  0  0  0  0  0  0  0
   -6.0000  -15.9636   25.6214 C   0  0  0  0  0  0  0  0  0  0  0  0
   -7.1410  -15.6706   26.3496 N   0  0  0  0  0  0  0  0  0  0  0  0
   -7.7599  -16.3842   27.3473 C   0  0  0  0  0  0  0  0  0  0  0  0
   -8.8815  -15.6583   27.6611 C   0  0  0  0  0  0  0  0  0  0  0  0
   -8.9420  -14.5087   26.9086 N   0  0  0  0  0  0  0  0  0  0  0  0
   -7.8710  -14.4993   26.1314 C   0  0  0  0  0  0  0  0  0  0  0  0
   -7.4644  -13.5552   25.1994 N   0  0  0  0  0  0  0  0  0  0  0  0
   -4.4022  -10.7364   21.4663 C   0  0  0  0  0  0  0  0  0  0  0  0
   -2.1070   -8.7195   20.0800 H   0  0  0  0  0  0  0  0  0  0  0  0
   -3.7336   -8.8104   19.3290 H   0  0  0  0  0  0  0  0  0  0  0  0
   -2.6977  -10.2739   19.4245 H   0  0  0  0  0  0  0  0  0  0  0  0
   -2.8381   -8.0642   22.4396 H   0  0  0  0  0  0  0  0  0  0  0  0
   -5.4693  -11.4625   24.6069 H   0  0  0  0  0  0  0  0  0  0  0  0
   -4.7117  -15.2596   24.0570 H   0  0  0  0  0  0  0  0  0  0  0  0
   -5.4933  -16.8959   25.8359 H   0  0  0  0  0  0  0  0  0  0  0  0
   -7.3627  -17.3130   27.7297 H   0  0  0  0  0  0  0  0  0  0  0  0
   -9.6467  -15.8873   28.3912 H   0  0  0  0  0  0  0  0  0  0  0  0
   -4.6958  -11.4378   20.6965 H   0  0  0  0  0  0  0  0  0  0  0  0
  1  2  1  0
  2  3  1  0
  3  4  2  0
  4  5  1  0
  5  6  1  0
  6  7  1  0
  7  8  2  0
  7  9  1  0
  9 10  1  0
 10 11  2  0
 11 12  1  0
 12 13  1  0
 13 14  2  0
 14 15  1  0
 15 16  2  0
 16 17  1  0
  5 18  2  0
 18  2  1  0
 17  9  2  0
 16 12  1  0
  1 19  1  0
  1 20  1  0
  1 21  1  0
  3 22  1  0
  6 23  1  0
 10 24  1  0
 11 25  1  0
 13 26  1  0
 14 27  1  0
 18 28  1  0
M  END
>  <Energy>  (948) 
27.840419362794705

>  <compound_id>  (948) 
8693

>  <target_id>  (948) 
1

>  <reference_id>  (948) 
80

>  <inspiration_ids>  (948) 
[80, 107]

>  <energy_score>  (948) 
-37.62518697646698

>  <distance_score>  (948) 
14.546971832160883

>  <path>  (948) 
/opt/xchem-fragalysis-2/maxwin/BulkDock/SCRATCH/511020/C8693-P80/C8693-P80.minimised.mol

>  <scratch_subdir>  (948) 
/opt/xchem-fragalysis-2/maxwin/BulkDock/SCRATCH/511020/C8693-P80

>  <fragmenstein_runtime>  (948) 
13.432864427566528

>  <fragmenstein_outcome>  (948) 
too moved

>  <fragmenstein_mode>  (948) 
expansion

>  <fragmenstein_error>  (948) 


$$$$
C8693-P107
     RDKit          3D

 28 30  0  0  0  0  0  0  0  0999 V2000
   -3.6029   -8.6491   20.3901 C   0  0  0  0  0  0  0  0  0  0  0  0
   -3.8572   -9.2365   21.6810 N   0  0  0  0  0  0  0  0  0  0  0  0
   -3.2982   -8.8452   22.8580 C   0  0  0  0  0  0  0  0  0  0  0  0
   -3.6662   -9.6602   23.8334 N   0  0  0  0  0  0  0  0  0  0  0  0
   -4.6110  -10.5356   23.3122 C   0  0  0  0  0  0  0  0  0  0  0  0
   -5.2296  -11.5697   24.0197 N   0  0  0  0  0  0  0  0  0  0  0  0
   -5.0403  -12.0370   25.3827 C   0  0  0  0  0  0  0  0  0  0  0  0
   -4.3610  -11.6034   26.2727 O   0  0  0  0  0  0  0  0  0  0  0  0
   -5.8038  -13.3693   25.7768 C   0  0  0  0  0  0  0  0  0  0  0  0
   -4.9142  -14.4438   26.3761 C   0  0  0  0  0  0  0  0  0  0  0  0
   -5.5220  -15.4930   26.9543 C   0  0  0  0  0  0  0  0  0  0  0  0
   -6.9029  -15.5578   26.9473 N   0  0  0  0  0  0  0  0  0  0  0  0
   -7.7422  -16.4679   27.5414 C   0  0  0  0  0  0  0  0  0  0  0  0
   -9.0072  -16.0332   27.2356 C   0  0  0  0  0  0  0  0  0  0  0  0
   -8.9601  -14.9086   26.4441 N   0  0  0  0  0  0  0  0  0  0  0  0
   -7.6823  -14.5939   26.2994 C   0  0  0  0  0  0  0  0  0  0  0  0
   -7.1083  -13.4847   25.6882 N   0  0  0  0  0  0  0  0  0  0  0  0
   -4.7148  -10.2788   21.9560 C   0  0  0  0  0  0  0  0  0  0  0  0
   -2.5251   -8.5074   20.2754 H   0  0  0  0  0  0  0  0  0  0  0  0
   -4.1231   -7.6894   20.3422 H   0  0  0  0  0  0  0  0  0  0  0  0
   -3.9714   -9.3181   19.6084 H   0  0  0  0  0  0  0  0  0  0  0  0
   -2.6155   -8.0094   22.9499 H   0  0  0  0  0  0  0  0  0  0  0  0
   -5.9416  -12.1338   23.5724 H   0  0  0  0  0  0  0  0  0  0  0  0
   -3.8413  -14.2933   26.3746 H   0  0  0  0  0  0  0  0  0  0  0  0
   -4.9820  -16.2850   27.4584 H   0  0  0  0  0  0  0  0  0  0  0  0
   -7.3744  -17.2944   28.1327 H   0  0  0  0  0  0  0  0  0  0  0  0
   -9.9526  -16.4604   27.5410 H   0  0  0  0  0  0  0  0  0  0  0  0
   -5.2985  -10.7505   21.1781 H   0  0  0  0  0  0  0  0  0  0  0  0
  1  2  1  0
  2  3  1  0
  3  4  2  0
  4  5  1  0
  5  6  1  0
  6  7  1  0
  7  8  2  0
  7  9  1  0
  9 10  1  0
 10 11  2  0
 11 12  1  0
 12 13  1  0
 13 14  2  0
 14 15  1  0
 15 16  2  0
 16 17  1  0
  5 18  2  0
 18  2  1  0
 17  9  2  0
 16 12  1  0
  1 19  1  0
  1 20  1  0
  1 21  1  0
  3 22  1  0
  6 23  1  0
 10 24  1  0
 11 25  1  0
 13 26  1  0
 14 27  1  0
 18 28  1  0
M  END
>  <Energy>  (949) 
33.163972306605686

>  <compound_id>  (949) 
8693

>  <target_id>  (949) 
1

>  <reference_id>  (949) 
107

>  <inspiration_ids>  (949) 
[80, 107]

>  <energy_score>  (949) 
-32.301634032658114

>  <distance_score>  (949) 
14.680979968586186

>  <path>  (949) 
/opt/xchem-fragalysis-2/maxwin/BulkDock/SCRATCH/511020/C8693-P107/C8693-P107.minimised.mol

>  <scratch_subdir>  (949) 
/opt/xchem-fragalysis-2/maxwin/BulkDock/SCRATCH/511020/C8693-P107

>  <fragmenstein_runtime>  (949) 
15.29596996307373

>  <fragmenstein_outcome>  (949) 
too moved

>  <fragmenstein_mode>  (949) 
expansion

>  <fragmenstein_error>  (949) 


$$$$
C8694-P80
     RDKit          3D

 39 42  0  0  0  0  0  0  0  0999 V2000
    8.3553  -10.9113   25.1391 C   0  0  0  0  0  0  0  0  0  0  0  0
    7.4290  -11.5518   24.3446 C   0  0  0  0  0  0  0  0  0  0  0  0
    6.3816  -10.7008   24.0136 N   0  0  0  0  0  0  0  0  0  0  0  0
    4.8567  -10.9366   22.8454 C   0  0  0  0  0  0  0  0  0  0  0  0
    2.9817  -11.8906   23.2093 C   0  0  0  0  0  0  0  0  0  0  0  0
    2.6652  -13.1521   24.2701 C   0  0  0  0  0  0  0  0  0  0  0  0
    1.1328  -13.4780   25.5110 C   0  0  0  0  0  0  0  0  0  0  0  0
   -0.5437  -14.1259   24.6204 N   0  0  0  0  0  0  0  0  0  0  0  0
   -2.0792  -14.6873   25.3519 C   0  0  0  0  0  0  0  0  0  0  0  0
   -2.4275  -14.9377   26.9666 C   0  0  0  0  0  0  0  0  0  0  0  0
   -3.5553  -15.5128   27.4033 C   0  0  0  0  0  0  0  0  0  0  0  0
   -4.4898  -15.8900   26.4858 N   0  0  0  0  0  0  0  0  0  0  0  0
   -5.7308  -16.4417   26.6788 C   0  0  0  0  0  0  0  0  0  0  0  0
   -6.2584  -16.5292   25.4179 C   0  0  0  0  0  0  0  0  0  0  0  0
   -5.3364  -16.1566   24.4736 N   0  0  0  0  0  0  0  0  0  0  0  0
   -4.2684  -15.7296   25.1288 C   0  0  0  0  0  0  0  0  0  0  0  0
   -3.0906  -15.2169   24.6171 N   0  0  0  0  0  0  0  0  0  0  0  0
   -0.1145  -13.6232   23.2019 C   0  0  0  0  0  0  0  0  0  0  0  0
    0.9719  -11.7518   23.0115 C   0  0  0  0  0  0  0  0  0  0  0  0
    6.7733   -9.5779   24.9017 C   0  0  0  0  0  0  0  0  0  0  0  0
    7.9481   -9.6786   25.4667 N   0  0  0  0  0  0  0  0  0  0  0  0
    9.2959  -11.3124   25.4943 H   0  0  0  0  0  0  0  0  0  0  0  0
    7.5536  -12.5311   23.9974 H   0  0  0  0  0  0  0  0  0  0  0  0
    5.3007  -11.6364   23.5964 H   0  0  0  0  0  0  0  0  0  0  0  0
    4.6432   -9.9495   23.2310 H   0  0  0  0  0  0  0  0  0  0  0  0
    3.2465  -12.4812   22.3298 H   0  0  0  0  0  0  0  0  0  0  0  0
    2.7394  -13.9692   23.5266 H   0  0  0  0  0  0  0  0  0  0  0  0
    3.5556  -13.5442   24.7790 H   0  0  0  0  0  0  0  0  0  0  0  0
    1.3887  -14.0169   26.4369 H   0  0  0  0  0  0  0  0  0  0  0  0
    0.9971  -12.5033   26.0392 H   0  0  0  0  0  0  0  0  0  0  0  0
   -1.6487  -14.7601   27.6971 H   0  0  0  0  0  0  0  0  0  0  0  0
   -3.7554  -15.7113   28.4479 H   0  0  0  0  0  0  0  0  0  0  0  0
   -6.1296  -16.6505   27.6607 H   0  0  0  0  0  0  0  0  0  0  0  0
   -7.2511  -16.8235   25.1191 H   0  0  0  0  0  0  0  0  0  0  0  0
    0.7607  -14.2463   23.4730 H   0  0  0  0  0  0  0  0  0  0  0  0
   -0.3399  -14.2753   22.3857 H   0  0  0  0  0  0  0  0  0  0  0  0
    0.2620  -10.9078   22.9880 H   0  0  0  0  0  0  0  0  0  0  0  0
    0.9452  -11.2750   22.0488 H   0  0  0  0  0  0  0  0  0  0  0  0
    6.1250   -8.7149   25.0382 H   0  0  0  0  0  0  0  0  0  0  0  0
  1  2  2  0
  2  3  1  0
  3  4  1  0
  4  5  1  0
  5  6  1  0
  6  7  1  0
  7  8  1  0
  8  9  1  0
  9 10  1  0
 10 11  2  0
 11 12  1  0
 12 13  1  0
 13 14  2  0
 14 15  1  0
 15 16  2  0
 16 17  1  0
  8 18  1  0
 18 19  1  0
  3 20  1  0
 20 21  2  0
 21  1  1  0
 19  5  1  0
 17  9  2  0
 16 12  1  0
  1 22  1  0
  2 23  1  0
  4 24  1  0
  4 25  1  0
  5 26  1  0
  6 27  1  0
  6 28  1  0
  7 29  1  0
  7 30  1  0
 10 31  1  0
 11 32  1  0
 13 33  1  0
 14 34  1  0
 18 35  1  0
 18 36  1  0
 19 37  1  0
 19 38  1  0
 20 39  1  0
M  END
>  <Energy>  (950) 
747.03650499395553

>  <compound_id>  (950) 
8694

>  <target_id>  (950) 
1

>  <reference_id>  (950) 
80

>  <inspiration_ids>  (950) 
[80, 107]

>  <energy_score>  (950) 
709.6424117296708

>  <distance_score>  (950) 
12.799182043519021

>  <path>  (950) 
/opt/xchem-fragalysis-2/maxwin/BulkDock/SCRATCH/511020/C8694-P80/C8694-P80.minimised.mol

>  <scratch_subdir>  (950) 
/opt/xchem-fragalysis-2/maxwin/BulkDock/SCRATCH/511020/C8694-P80

>  <fragmenstein_runtime>  (950) 
19.793318510055542

>  <fragmenstein_outcome>  (950) 
too moved

>  <fragmenstein_mode>  (950) 
expansion

>  <fragmenstein_error>  (950) 


$$$$
C8694-P107
     RDKit          3D

 39 42  0  0  0  0  0  0  0  0999 V2000
   -1.8939   -9.7050   20.6398 C   0  0  0  0  0  0  0  0  0  0  0  0
   -1.9678  -11.0478   20.3624 C   0  0  0  0  0  0  0  0  0  0  0  0
   -2.0645  -11.1824   19.0130 N   0  0  0  0  0  0  0  0  0  0  0  0
   -2.5443  -12.3465   18.3016 C   0  0  0  0  0  0  0  0  0  0  0  0
   -2.0942  -14.0523   17.8363 C   0  0  0  0  0  0  0  0  0  0  0  0
   -1.9624  -15.3847   19.1479 C   0  0  0  0  0  0  0  0  0  0  0  0
   -2.6627  -16.8234   19.1489 C   0  0  0  0  0  0  0  0  0  0  0  0
   -3.8201  -17.1979   18.2389 N   0  0  0  0  0  0  0  0  0  0  0  0
   -4.7861  -18.0799   18.9286 C   0  0  0  0  0  0  0  0  0  0  0  0
   -4.2336  -19.3787   19.5428 C   0  0  0  0  0  0  0  0  0  0  0  0
   -4.9922  -20.0736   20.4049 C   0  0  0  0  0  0  0  0  0  0  0  0
   -6.2578  -19.6125   20.6979 N   0  0  0  0  0  0  0  0  0  0  0  0
   -7.1987  -20.1133   21.5628 C   0  0  0  0  0  0  0  0  0  0  0  0
   -8.2413  -19.2231   21.5072 C   0  0  0  0  0  0  0  0  0  0  0  0
   -7.9679  -18.2122   20.6179 N   0  0  0  0  0  0  0  0  0  0  0  0
   -6.7787  -18.4731   20.0909 C   0  0  0  0  0  0  0  0  0  0  0  0
   -6.0478  -17.7535   19.1568 N   0  0  0  0  0  0  0  0  0  0  0  0
   -4.2107  -16.2903   17.0003 C   0  0  0  0  0  0  0  0  0  0  0  0
   -3.1338  -14.8784   16.5693 C   0  0  0  0  0  0  0  0  0  0  0  0
   -2.2512   -9.8801   18.5597 C   0  0  0  0  0  0  0  0  0  0  0  0
   -2.0962   -8.9865   19.5025 N   0  0  0  0  0  0  0  0  0  0  0  0
   -1.7420   -9.2182   21.5924 H   0  0  0  0  0  0  0  0  0  0  0  0
   -1.9174  -11.9185   20.9588 H   0  0  0  0  0  0  0  0  0  0  0  0
   -2.4387  -11.9567   17.3425 H   0  0  0  0  0  0  0  0  0  0  0  0
   -3.5924  -12.1639   18.5036 H   0  0  0  0  0  0  0  0  0  0  0  0
   -1.1796  -13.7054   17.3817 H   0  0  0  0  0  0  0  0  0  0  0  0
   -2.2013  -14.9677   20.1304 H   0  0  0  0  0  0  0  0  0  0  0  0
   -0.9650  -15.6017   19.4144 H   0  0  0  0  0  0  0  0  0  0  0  0
   -1.9038  -17.6087   19.0369 H   0  0  0  0  0  0  0  0  0  0  0  0
   -3.0119  -16.9825   20.1715 H   0  0  0  0  0  0  0  0  0  0  0  0
   -3.2365  -19.6828   19.2535 H   0  0  0  0  0  0  0  0  0  0  0  0
   -4.6617  -20.9865   20.8820 H   0  0  0  0  0  0  0  0  0  0  0  0
   -7.0429  -21.0296   22.1109 H   0  0  0  0  0  0  0  0  0  0  0  0
   -9.1823  -19.2542   22.0387 H   0  0  0  0  0  0  0  0  0  0  0  0
   -5.2147  -15.8799   17.1673 H   0  0  0  0  0  0  0  0  0  0  0  0
   -4.2995  -16.9223   16.1078 H   0  0  0  0  0  0  0  0  0  0  0  0
   -2.5693  -15.0683   15.6619 H   0  0  0  0  0  0  0  0  0  0  0  0
   -3.9054  -14.1872   16.3000 H   0  0  0  0  0  0  0  0  0  0  0  0
   -2.5624   -9.6412   17.5596 H   0  0  0  0  0  0  0  0  0  0  0  0
  1  2  2  0
  2  3  1  0
  3  4  1  0
  4  5  1  0
  5  6  1  0
  6  7  1  0
  7  8  1  0
  8  9  1  0
  9 10  1  0
 10 11  2  0
 11 12  1  0
 12 13  1  0
 13 14  2  0
 14 15  1  0
 15 16  2  0
 16 17  1  0
  8 18  1  0
 18 19  1  0
  3 20  1  0
 20 21  2  0
 21  1  1  0
 19  5  1  0
 17  9  2  0
 16 12  1  0
  1 22  1  0
  2 23  1  0
  4 24  1  0
  4 25  1  0
  5 26  1  0
  6 27  1  0
  6 28  1  0
  7 29  1  0
  7 30  1  0
 10 31  1  0
 11 32  1  0
 13 33  1  0
 14 34  1  0
 18 35  1  0
 18 36  1  0
 19 37  1  0
 19 38  1  0
 20 39  1  0
M  END
>  <Energy>  (951) 
183.73062854644388

>  <compound_id>  (951) 
8694

>  <target_id>  (951) 
1

>  <reference_id>  (951) 
107

>  <inspiration_ids>  (951) 
[80, 107]

>  <energy_score>  (951) 
146.33653528215507

>  <distance_score>  (951) 
14.422782748579053

>  <path>  (951) 
/opt/xchem-fragalysis-2/maxwin/BulkDock/SCRATCH/511020/C8694-P107/C8694-P107.minimised.mol

>  <scratch_subdir>  (951) 
/opt/xchem-fragalysis-2/maxwin/BulkDock/SCRATCH/511020/C8694-P107

>  <fragmenstein_runtime>  (951) 
22.007534742355347

>  <fragmenstein_outcome>  (951) 
too moved

>  <fragmenstein_mode>  (951) 
expansion

>  <fragmenstein_error>  (951) 


$$$$
C8688-P80
     RDKit          3D

 33 36  0  0  0  0  0  0  0  0999 V2000
    5.7296  -17.3234   22.8507 C   0  0  0  0  0  0  0  0  0  0  0  0
    5.1311  -18.2548   22.0318 C   0  0  0  0  0  0  0  0  0  0  0  0
    3.4240  -18.1808   22.1194 S   0  0  0  0  0  0  0  0  0  0  0  0
    3.4760  -16.8506   23.1906 C   0  0  0  0  0  0  0  0  0  0  0  0
    2.1840  -16.1817   23.7668 C   0  0  0  0  0  0  0  0  0  0  0  0
    2.1265  -15.0396   24.5230 C   0  0  0  0  0  0  0  0  0  0  0  0
    0.7987  -14.9128   24.8564 N   0  0  0  0  0  0  0  0  0  0  0  0
    0.0996  -16.0160   24.3971 C   0  0  0  0  0  0  0  0  0  0  0  0
   -1.4151  -16.2770   24.7148 C   0  0  0  0  0  0  0  0  0  0  0  0
   -1.8084  -17.5472   25.3802 N   0  0  0  0  0  0  0  0  0  0  0  0
   -2.9751  -17.7861   26.1168 C   0  0  0  0  0  0  0  0  0  0  0  0
   -2.9224  -18.9160   27.1402 C   0  0  0  0  0  0  0  0  0  0  0  0
   -3.9292  -19.0079   28.0212 C   0  0  0  0  0  0  0  0  0  0  0  0
   -5.0095  -18.1602   27.8836 N   0  0  0  0  0  0  0  0  0  0  0  0
   -6.0921  -17.9597   28.6956 C   0  0  0  0  0  0  0  0  0  0  0  0
   -6.9241  -17.1281   27.9946 C   0  0  0  0  0  0  0  0  0  0  0  0
   -6.3300  -16.7342   26.8213 N   0  0  0  0  0  0  0  0  0  0  0  0
   -5.1250  -17.2842   26.8106 C   0  0  0  0  0  0  0  0  0  0  0  0
   -4.0623  -17.0613   25.9637 N   0  0  0  0  0  0  0  0  0  0  0  0
    0.9202  -16.7398   23.6489 N   0  0  0  0  0  0  0  0  0  0  0  0
    4.7682  -16.5226   23.5359 C   0  0  0  0  0  0  0  0  0  0  0  0
    6.8029  -17.2265   22.9562 H   0  0  0  0  0  0  0  0  0  0  0  0
    5.6087  -18.9861   21.3947 H   0  0  0  0  0  0  0  0  0  0  0  0
    2.8626  -14.3124   24.8283 H   0  0  0  0  0  0  0  0  0  0  0  0
    0.3897  -14.1078   25.3175 H   0  0  0  0  0  0  0  0  0  0  0  0
   -1.9524  -16.2155   23.7615 H   0  0  0  0  0  0  0  0  0  0  0  0
   -1.7597  -15.4461   25.3419 H   0  0  0  0  0  0  0  0  0  0  0  0
   -1.0163  -18.1696   25.5009 H   0  0  0  0  0  0  0  0  0  0  0  0
   -2.0405  -19.5401   27.1816 H   0  0  0  0  0  0  0  0  0  0  0  0
   -3.9401  -19.7094   28.8453 H   0  0  0  0  0  0  0  0  0  0  0  0
   -6.1587  -18.3972   29.6785 H   0  0  0  0  0  0  0  0  0  0  0  0
   -7.8983  -16.7580   28.2841 H   0  0  0  0  0  0  0  0  0  0  0  0
    5.0209  -15.7587   24.2577 H   0  0  0  0  0  0  0  0  0  0  0  0
  1  2  2  0
  2  3  1  0
  3  4  1  0
  4  5  1  0
  5  6  2  0
  6  7  1  0
  7  8  1  0
  8  9  1  0
  9 10  1  0
 10 11  1  0
 11 12  1  0
 12 13  2  0
 13 14  1  0
 14 15  1  0
 15 16  2  0
 16 17  1  0
 17 18  2  0
 18 19  1  0
  8 20  2  0
  4 21  2  0
 21  1  1  0
 20  5  1  0
 19 11  2  0
 18 14  1  0
  1 22  1  0
  2 23  1  0
  6 24  1  0
  7 25  1  0
  9 26  1  0
  9 27  1  0
 10 28  1  0
 12 29  1  0
 13 30  1  0
 15 31  1  0
 16 32  1  0
 21 33  1  0
M  END
>  <Energy>  (952) 
7.9774918502608658

>  <compound_id>  (952) 
8688

>  <target_id>  (952) 
1

>  <reference_id>  (952) 
80

>  <inspiration_ids>  (952) 
[80, 107]

>  <energy_score>  (952) 
-64.32448832951201

>  <distance_score>  (952) 
14.072131585180918

>  <path>  (952) 
/opt/xchem-fragalysis-2/maxwin/BulkDock/SCRATCH/511020/C8688-P80/C8688-P80.minimised.mol

>  <scratch_subdir>  (952) 
/opt/xchem-fragalysis-2/maxwin/BulkDock/SCRATCH/511020/C8688-P80

>  <fragmenstein_runtime>  (952) 
15.653557300567627

>  <fragmenstein_outcome>  (952) 
too moved

>  <fragmenstein_mode>  (952) 
expansion

>  <fragmenstein_error>  (952) 


$$$$
C8688-P107
     RDKit          3D

 33 36  0  0  0  0  0  0  0  0999 V2000
   11.2588   -5.2893   20.4720 C   0  0  0  0  0  0  0  0  0  0  0  0
   11.1693   -4.0766   21.0733 C   0  0  0  0  0  0  0  0  0  0  0  0
    8.9657   -3.6570   20.4784 S   0  0  0  0  0  0  0  0  0  0  0  0
    7.8915   -4.8858   20.6461 C   0  0  0  0  0  0  0  0  0  0  0  0
    7.1736   -5.9229   22.4933 C   0  0  0  0  0  0  0  0  0  0  0  0
    7.1149   -6.0666   23.9023 C   0  0  0  0  0  0  0  0  0  0  0  0
    5.9114   -7.0759   24.4764 N   0  0  0  0  0  0  0  0  0  0  0  0
    4.8480   -7.8185   23.4394 C   0  0  0  0  0  0  0  0  0  0  0  0
    4.5449   -9.9251   23.2215 C   0  0  0  0  0  0  0  0  0  0  0  0
    3.4808  -11.6045   22.8924 N   0  0  0  0  0  0  0  0  0  0  0  0
    2.8432  -12.9796   23.9344 C   0  0  0  0  0  0  0  0  0  0  0  0
    2.7353  -14.6020   23.6405 C   0  0  0  0  0  0  0  0  0  0  0  0
    2.0317  -15.4607   24.4054 C   0  0  0  0  0  0  0  0  0  0  0  0
    1.4680  -15.0233   25.5728 N   0  0  0  0  0  0  0  0  0  0  0  0
    0.6568  -15.6756   26.4736 C   0  0  0  0  0  0  0  0  0  0  0  0
    0.4220  -14.7540   27.4623 C   0  0  0  0  0  0  0  0  0  0  0  0
    1.0828  -13.5741   27.1879 N   0  0  0  0  0  0  0  0  0  0  0  0
    1.6919  -13.7331   26.0130 C   0  0  0  0  0  0  0  0  0  0  0  0
    2.3504  -12.7917   25.2159 N   0  0  0  0  0  0  0  0  0  0  0  0
    5.9422   -7.0867   22.4752 N   0  0  0  0  0  0  0  0  0  0  0  0
    9.6164   -5.3307   20.0261 C   0  0  0  0  0  0  0  0  0  0  0  0
   12.1363   -5.7379   20.0442 H   0  0  0  0  0  0  0  0  0  0  0  0
   11.9202   -3.3363   21.2241 H   0  0  0  0  0  0  0  0  0  0  0  0
    7.6238   -5.6408   24.7515 H   0  0  0  0  0  0  0  0  0  0  0  0
    5.9745   -7.4262   25.4128 H   0  0  0  0  0  0  0  0  0  0  0  0
    3.4882   -9.7926   23.2308 H   0  0  0  0  0  0  0  0  0  0  0  0
    5.2979  -10.5106   22.6846 H   0  0  0  0  0  0  0  0  0  0  0  0
    3.7476  -11.9873   21.9875 H   0  0  0  0  0  0  0  0  0  0  0  0
    3.0533  -15.0019   22.7001 H   0  0  0  0  0  0  0  0  0  0  0  0
    1.8700  -16.4934   24.1263 H   0  0  0  0  0  0  0  0  0  0  0  0
    0.3348  -16.6955   26.3285 H   0  0  0  0  0  0  0  0  0  0  0  0
   -0.1714  -14.8679   28.3596 H   0  0  0  0  0  0  0  0  0  0  0  0
    9.6205   -6.1209   19.3197 H   0  0  0  0  0  0  0  0  0  0  0  0
  1  2  2  0
  2  3  1  0
  3  4  1  0
  4  5  1  0
  5  6  2  0
  6  7  1  0
  7  8  1  0
  8  9  1  0
  9 10  1  0
 10 11  1  0
 11 12  1  0
 12 13  2  0
 13 14  1  0
 14 15  1  0
 15 16  2  0
 16 17  1  0
 17 18  2  0
 18 19  1  0
  8 20  2  0
  4 21  2  0
 21  1  1  0
 20  5  1  0
 19 11  2  0
 18 14  1  0
  1 22  1  0
  2 23  1  0
  6 24  1  0
  7 25  1  0
  9 26  1  0
  9 27  1  0
 10 28  1  0
 12 29  1  0
 13 30  1  0
 15 31  1  0
 16 32  1  0
 21 33  1  0
M  END
>  <Energy>  (953) 
999.18789914842773

>  <compound_id>  (953) 
8688

>  <target_id>  (953) 
1

>  <reference_id>  (953) 
107

>  <inspiration_ids>  (953) 
[80, 107]

>  <energy_score>  (953) 
926.8859189686699

>  <distance_score>  (953) 
15.341620367682205

>  <path>  (953) 
/opt/xchem-fragalysis-2/maxwin/BulkDock/SCRATCH/511020/C8688-P107/C8688-P107.minimised.mol

>  <scratch_subdir>  (953) 
/opt/xchem-fragalysis-2/maxwin/BulkDock/SCRATCH/511020/C8688-P107

>  <fragmenstein_runtime>  (953) 
13.614202737808228

>  <fragmenstein_outcome>  (953) 
too moved

>  <fragmenstein_mode>  (953) 
expansion

>  <fragmenstein_error>  (953) 


$$$$
C8695-P80
     RDKit          3D

 36 40  0  0  0  0  0  0  0  0999 V2000
    0.6894  -13.7222   16.9351 O   0  0  0  0  0  0  0  0  0  0  0  0
    0.9966  -14.4190   15.9947 C   0  0  0  0  0  0  0  0  0  0  0  0
    2.4730  -15.7931   16.5806 C   0  0  0  0  0  0  0  0  0  0  0  0
    3.7767  -16.8149   15.9762 C   0  0  0  0  0  0  0  0  0  0  0  0
    3.7623  -18.1893   16.0011 C   0  0  0  0  0  0  0  0  0  0  0  0
    2.7417  -18.8319   16.6792 N   0  0  0  0  0  0  0  0  0  0  0  0
    2.3380  -20.1277   16.8899 C   0  0  0  0  0  0  0  0  0  0  0  0
    1.2644  -20.0435   17.7515 C   0  0  0  0  0  0  0  0  0  0  0  0
    1.0455  -18.7381   18.0922 N   0  0  0  0  0  0  0  0  0  0  0  0
    1.9830  -18.0328   17.4642 C   0  0  0  0  0  0  0  0  0  0  0  0
    2.4618  -16.7086   17.6141 N   0  0  0  0  0  0  0  0  0  0  0  0
    0.4538  -14.3723   14.0258 N   0  0  0  0  0  0  0  0  0  0  0  0
   -0.6473  -13.4376   13.4519 C   0  0  0  0  0  0  0  0  0  0  0  0
   -0.5779  -11.9205   12.6770 C   0  0  0  0  0  0  0  0  0  0  0  0
   -0.3124  -12.6398   11.4418 C   0  0  0  0  0  0  0  0  0  0  0  0
   -0.3377  -13.4310   13.1256 C   0  0  0  0  0  0  0  0  0  0  0  0
    0.5938  -14.5721   11.7198 C   0  0  0  0  0  0  0  0  0  0  0  0
    1.5394  -14.1023   10.9100 N   0  0  0  0  0  0  0  0  0  0  0  0
    1.9371  -15.1454   10.1346 C   0  0  0  0  0  0  0  0  0  0  0  0
    1.2400  -16.2723   10.4875 C   0  0  0  0  0  0  0  0  0  0  0  0
    0.3495  -15.8864   11.4588 N   0  0  0  0  0  0  0  0  0  0  0  0
    0.6456  -12.2074   13.2114 C   0  0  0  0  0  0  0  0  0  0  0  0
    4.7336  -16.3611   15.7786 H   0  0  0  0  0  0  0  0  0  0  0  0
    4.5710  -18.8018   15.6273 H   0  0  0  0  0  0  0  0  0  0  0  0
    2.8265  -20.9644   16.4141 H   0  0  0  0  0  0  0  0  0  0  0  0
    0.6538  -20.8443   18.1473 H   0  0  0  0  0  0  0  0  0  0  0  0
   -1.3811  -14.6362   12.9423 H   0  0  0  0  0  0  0  0  0  0  0  0
   -1.2632  -13.7232   14.4222 H   0  0  0  0  0  0  0  0  0  0  0  0
   -0.9790  -10.9181   12.6482 H   0  0  0  0  0  0  0  0  0  0  0  0
   -1.0624  -12.9818   10.7222 H   0  0  0  0  0  0  0  0  0  0  0  0
    0.4941  -12.1556   10.8718 H   0  0  0  0  0  0  0  0  0  0  0  0
    2.7088  -15.0377    9.3839 H   0  0  0  0  0  0  0  0  0  0  0  0
    1.2766  -17.2895   10.1253 H   0  0  0  0  0  0  0  0  0  0  0  0
   -0.3090  -16.4801   11.9431 H   0  0  0  0  0  0  0  0  0  0  0  0
    1.0729  -12.1200   14.1904 H   0  0  0  0  0  0  0  0  0  0  0  0
    1.1247  -11.4555   12.5244 H   0  0  0  0  0  0  0  0  0  0  0  0
  1  2  2  0
  2  3  1  0
  3  4  1  0
  4  5  2  0
  5  6  1  0
  6  7  1  0
  7  8  2  0
  8  9  1  0
  9 10  2  0
 10 11  1  0
  2 12  1  0
 12 13  1  0
 13 14  1  0
 14 15  1  0
 15 16  1  0
 16 17  1  0
 17 18  2  0
 18 19  1  0
 19 20  2  0
 20 21  1  0
 16 22  1  0
 11  3  2  0
 16 12  1  0
 21 17  1  0
 10  6  1  0
 22 14  1  0
  4 23  1  0
  5 24  1  0
  7 25  1  0
  8 26  1  0
 13 27  1  0
 13 28  1  0
 14 29  1  0
 15 30  1  0
 15 31  1  0
 19 32  1  0
 20 33  1  0
 21 34  1  0
 22 35  1  0
 22 36  1  0
M  END
>  <Energy>  (954) 
1272.8768507039645

>  <compound_id>  (954) 
8695

>  <target_id>  (954) 
1

>  <reference_id>  (954) 
80

>  <inspiration_ids>  (954) 
[80, 107]

>  <energy_score>  (954) 
1133.1171284871239

>  <distance_score>  (954) 
19.861725289553842

>  <path>  (954) 
/opt/xchem-fragalysis-2/maxwin/BulkDock/SCRATCH/511020/C8695-P80/C8695-P80.minimised.mol

>  <scratch_subdir>  (954) 
/opt/xchem-fragalysis-2/maxwin/BulkDock/SCRATCH/511020/C8695-P80

>  <fragmenstein_runtime>  (954) 
30.569937229156494

>  <fragmenstein_outcome>  (954) 
too moved

>  <fragmenstein_mode>  (954) 
expansion

>  <fragmenstein_error>  (954) 


$$$$
C8695-P107
     RDKit          3D

 36 40  0  0  0  0  0  0  0  0999 V2000
   -0.3871  -19.1519   18.8477 O   0  0  0  0  0  0  0  0  0  0  0  0
   -0.0529  -20.0700   19.5293 C   0  0  0  0  0  0  0  0  0  0  0  0
   -0.8924  -20.3590   20.8809 C   0  0  0  0  0  0  0  0  0  0  0  0
   -0.6437  -19.4538   22.0567 C   0  0  0  0  0  0  0  0  0  0  0  0
   -1.3826  -19.6703   23.1626 C   0  0  0  0  0  0  0  0  0  0  0  0
   -2.3226  -20.6886   23.1773 N   0  0  0  0  0  0  0  0  0  0  0  0
   -3.1628  -21.1078   24.1831 C   0  0  0  0  0  0  0  0  0  0  0  0
   -3.8427  -22.1768   23.6542 C   0  0  0  0  0  0  0  0  0  0  0  0
   -3.4683  -22.3909   22.3487 N   0  0  0  0  0  0  0  0  0  0  0  0
   -2.5313  -21.4996   22.0639 C   0  0  0  0  0  0  0  0  0  0  0  0
   -1.7985  -21.3179   20.9011 N   0  0  0  0  0  0  0  0  0  0  0  0
    0.9467  -21.0760   19.3252 N   0  0  0  0  0  0  0  0  0  0  0  0
    2.0207  -21.4618   17.7678 C   0  0  0  0  0  0  0  0  0  0  0  0
    3.5519  -22.2788   18.1666 C   0  0  0  0  0  0  0  0  0  0  0  0
    2.3923  -23.0798   18.3446 C   0  0  0  0  0  0  0  0  0  0  0  0
    1.9841  -21.2220   18.2829 C   0  0  0  0  0  0  0  0  0  0  0  0
    3.0786  -19.5931   17.7093 C   0  0  0  0  0  0  0  0  0  0  0  0
    4.3900  -19.6290   17.4934 N   0  0  0  0  0  0  0  0  0  0  0  0
    4.7505  -18.3875   17.0213 C   0  0  0  0  0  0  0  0  0  0  0  0
    3.6433  -17.5899   16.9205 C   0  0  0  0  0  0  0  0  0  0  0  0
    2.5715  -18.3967   17.2564 N   0  0  0  0  0  0  0  0  0  0  0  0
    3.3744  -21.4923   19.4207 C   0  0  0  0  0  0  0  0  0  0  0  0
    0.0895  -18.6631   21.9633 H   0  0  0  0  0  0  0  0  0  0  0  0
   -1.2801  -19.0731   24.0587 H   0  0  0  0  0  0  0  0  0  0  0  0
   -3.1793  -20.6398   25.1556 H   0  0  0  0  0  0  0  0  0  0  0  0
   -4.5746  -22.8147   24.1318 H   0  0  0  0  0  0  0  0  0  0  0  0
    1.1584  -22.2386   17.1052 H   0  0  0  0  0  0  0  0  0  0  0  0
    1.9407  -20.8686   16.5899 H   0  0  0  0  0  0  0  0  0  0  0  0
    4.1185  -22.0956   17.2533 H   0  0  0  0  0  0  0  0  0  0  0  0
    2.2231  -23.5970   19.2978 H   0  0  0  0  0  0  0  0  0  0  0  0
    2.1947  -23.7737   17.5123 H   0  0  0  0  0  0  0  0  0  0  0  0
    5.7840  -18.1407   16.8199 H   0  0  0  0  0  0  0  0  0  0  0  0
    3.5134  -16.5447   16.6917 H   0  0  0  0  0  0  0  0  0  0  0  0
    1.6112  -18.1136   17.3694 H   0  0  0  0  0  0  0  0  0  0  0  0
    4.0736  -20.6838   19.6362 H   0  0  0  0  0  0  0  0  0  0  0  0
    3.1597  -22.0263   20.3545 H   0  0  0  0  0  0  0  0  0  0  0  0
  1  2  2  0
  2  3  1  0
  3  4  1  0
  4  5  2  0
  5  6  1  0
  6  7  1  0
  7  8  2  0
  8  9  1  0
  9 10  2  0
 10 11  1  0
  2 12  1  0
 12 13  1  0
 13 14  1  0
 14 15  1  0
 15 16  1  0
 16 17  1  0
 17 18  2  0
 18 19  1  0
 19 20  2  0
 20 21  1  0
 16 22  1  0
 11  3  2  0
 16 12  1  0
 21 17  1  0
 10  6  1  0
 22 14  1  0
  4 23  1  0
  5 24  1  0
  7 25  1  0
  8 26  1  0
 13 27  1  0
 13 28  1  0
 14 29  1  0
 15 30  1  0
 15 31  1  0
 19 32  1  0
 20 33  1  0
 21 34  1  0
 22 35  1  0
 22 36  1  0
M  END
>  <Energy>  (955) 
837.49612005893971

>  <compound_id>  (955) 
8695

>  <target_id>  (955) 
1

>  <reference_id>  (955) 
107

>  <inspiration_ids>  (955) 
[80, 107]

>  <energy_score>  (955) 
697.7363978421156

>  <distance_score>  (955) 
15.396946747991965

>  <path>  (955) 
/opt/xchem-fragalysis-2/maxwin/BulkDock/SCRATCH/511020/C8695-P107/C8695-P107.minimised.mol

>  <scratch_subdir>  (955) 
/opt/xchem-fragalysis-2/maxwin/BulkDock/SCRATCH/511020/C8695-P107

>  <fragmenstein_runtime>  (955) 
21.391331434249878

>  <fragmenstein_outcome>  (955) 
too moved

>  <fragmenstein_mode>  (955) 
expansion

>  <fragmenstein_error>  (955) 


$$$$
C8696-P80
     RDKit          3D

 32 34  0  0  0  0  0  0  0  0999 V2000
    5.3785  -15.7492   24.6817 O   0  0  0  0  0  0  0  0  0  0  0  0
    4.6979  -15.1575   25.4657 C   0  0  0  0  0  0  0  0  0  0  0  0
    3.8389  -13.9968   25.2916 N   0  0  0  0  0  0  0  0  0  0  0  0
    3.3792  -13.1094   23.8726 C   0  0  0  0  0  0  0  0  0  0  0  0
    4.0161  -11.6981   22.7890 C   0  0  0  0  0  0  0  0  0  0  0  0
    3.9583  -12.4271   21.5096 O   0  0  0  0  0  0  0  0  0  0  0  0
    5.5552  -10.6232   22.7592 C   0  0  0  0  0  0  0  0  0  0  0  0
    6.7017  -10.7550   21.9545 C   0  0  0  0  0  0  0  0  0  0  0  0
    7.5868   -9.8303   22.4089 N   0  0  0  0  0  0  0  0  0  0  0  0
    6.9390   -9.0496   23.3196 C   0  0  0  0  0  0  0  0  0  0  0  0
    5.7024   -9.4455   23.4994 N   0  0  0  0  0  0  0  0  0  0  0  0
    4.5102  -15.7217   27.0708 C   0  0  0  0  0  0  0  0  0  0  0  0
    4.7207  -17.2211   27.1997 C   0  0  0  0  0  0  0  0  0  0  0  0
    3.8236  -17.9050   27.9369 C   0  0  0  0  0  0  0  0  0  0  0  0
    2.8548  -17.2131   28.6482 N   0  0  0  0  0  0  0  0  0  0  0  0
    1.7933  -17.6806   29.3896 C   0  0  0  0  0  0  0  0  0  0  0  0
    1.1631  -16.5557   29.8614 C   0  0  0  0  0  0  0  0  0  0  0  0
    1.8132  -15.4197   29.4259 N   0  0  0  0  0  0  0  0  0  0  0  0
    2.8527  -15.8144   28.7011 C   0  0  0  0  0  0  0  0  0  0  0  0
    3.7347  -15.0545   27.9162 N   0  0  0  0  0  0  0  0  0  0  0  0
    3.4737  -13.7123   26.2004 H   0  0  0  0  0  0  0  0  0  0  0  0
    2.4176  -12.6891   24.1737 H   0  0  0  0  0  0  0  0  0  0  0  0
    3.0905  -13.9550   23.2494 H   0  0  0  0  0  0  0  0  0  0  0  0
    3.2923  -10.9668   22.9105 H   0  0  0  0  0  0  0  0  0  0  0  0
    4.6403  -12.1636   20.8720 H   0  0  0  0  0  0  0  0  0  0  0  0
    6.9657  -11.4595   21.1759 H   0  0  0  0  0  0  0  0  0  0  0  0
    8.5506   -9.7651   22.1162 H   0  0  0  0  0  0  0  0  0  0  0  0
    7.4015   -8.2197   23.8359 H   0  0  0  0  0  0  0  0  0  0  0  0
    5.5356  -17.6716   26.6525 H   0  0  0  0  0  0  0  0  0  0  0  0
    3.8346  -18.9841   28.0282 H   0  0  0  0  0  0  0  0  0  0  0  0
    1.5930  -18.7350   29.5103 H   0  0  0  0  0  0  0  0  0  0  0  0
    0.2821  -16.4911   30.4873 H   0  0  0  0  0  0  0  0  0  0  0  0
  1  2  2  0
  2  3  1  0
  3  4  1  0
  4  5  1  0
  5  6  1  0
  5  7  1  0
  7  8  2  0
  8  9  1  0
  9 10  1  0
 10 11  2  0
  2 12  1  0
 12 13  1  0
 13 14  2  0
 14 15  1  0
 15 16  1  0
 16 17  2  0
 17 18  1  0
 18 19  2  0
 19 20  1  0
 11  7  1  0
 20 12  2  0
 19 15  1  0
  3 21  1  0
  4 22  1  0
  4 23  1  0
  5 24  1  0
  6 25  1  0
  8 26  1  0
  9 27  1  0
 10 28  1  0
 13 29  1  0
 14 30  1  0
 16 31  1  0
 17 32  1  0
M  END
>  <Energy>  (956) 
238.00861780326721

>  <compound_id>  (956) 
8696

>  <target_id>  (956) 
1

>  <reference_id>  (956) 
80

>  <inspiration_ids>  (956) 
[80, 107]

>  <energy_score>  (956) 
121.29256838017102

>  <distance_score>  (956) 
15.370556015040307

>  <path>  (956) 
/opt/xchem-fragalysis-2/maxwin/BulkDock/SCRATCH/511020/C8696-P80/C8696-P80.minimised.mol

>  <scratch_subdir>  (956) 
/opt/xchem-fragalysis-2/maxwin/BulkDock/SCRATCH/511020/C8696-P80

>  <fragmenstein_runtime>  (956) 
23.775662422180176

>  <fragmenstein_outcome>  (956) 
too moved

>  <fragmenstein_mode>  (956) 
expansion

>  <fragmenstein_error>  (956) 


$$$$
C8696-P107
     RDKit          3D

 32 34  0  0  0  0  0  0  0  0999 V2000
    5.3160  -22.8039   22.3907 O   0  0  0  0  0  0  0  0  0  0  0  0
    5.0324  -21.7161   22.8157 C   0  0  0  0  0  0  0  0  0  0  0  0
    5.6789  -20.4271   22.6258 N   0  0  0  0  0  0  0  0  0  0  0  0
    6.8646  -20.0161   21.7469 C   0  0  0  0  0  0  0  0  0  0  0  0
    7.8023  -18.8083   22.2521 C   0  0  0  0  0  0  0  0  0  0  0  0
    8.6234  -19.3194   23.3263 O   0  0  0  0  0  0  0  0  0  0  0  0
    8.6938  -17.9860   21.2750 C   0  0  0  0  0  0  0  0  0  0  0  0
    9.7853  -17.1909   21.6282 C   0  0  0  0  0  0  0  0  0  0  0  0
   10.1516  -16.4925   20.5103 N   0  0  0  0  0  0  0  0  0  0  0  0
    9.3303  -16.9042   19.5060 C   0  0  0  0  0  0  0  0  0  0  0  0
    8.4222  -17.7607   19.9351 N   0  0  0  0  0  0  0  0  0  0  0  0
    3.6305  -21.7280   23.6800 C   0  0  0  0  0  0  0  0  0  0  0  0
    2.5343  -22.5792   23.0413 C   0  0  0  0  0  0  0  0  0  0  0  0
    1.4571  -22.8862   23.7860 C   0  0  0  0  0  0  0  0  0  0  0  0
    1.3552  -22.3767   25.0671 N   0  0  0  0  0  0  0  0  0  0  0  0
    0.4163  -22.6264   26.0453 C   0  0  0  0  0  0  0  0  0  0  0  0
    0.7923  -21.8438   27.1079 C   0  0  0  0  0  0  0  0  0  0  0  0
    1.9238  -21.1180   26.7988 N   0  0  0  0  0  0  0  0  0  0  0  0
    2.3100  -21.4925   25.5817 C   0  0  0  0  0  0  0  0  0  0  0  0
    3.4806  -21.1874   24.8759 N   0  0  0  0  0  0  0  0  0  0  0  0
    5.1132  -19.7027   23.0691 H   0  0  0  0  0  0  0  0  0  0  0  0
    7.4616  -20.9205   21.5901 H   0  0  0  0  0  0  0  0  0  0  0  0
    6.4239  -19.7286   20.7949 H   0  0  0  0  0  0  0  0  0  0  0  0
    7.1617  -18.0702   22.7292 H   0  0  0  0  0  0  0  0  0  0  0  0
    9.1266  -20.0600   22.9469 H   0  0  0  0  0  0  0  0  0  0  0  0
   10.2802  -17.0501   22.5795 H   0  0  0  0  0  0  0  0  0  0  0  0
   10.9156  -15.8351   20.4292 H   0  0  0  0  0  0  0  0  0  0  0  0
    9.4483  -16.5539   18.4915 H   0  0  0  0  0  0  0  0  0  0  0  0
    2.6983  -22.9452   22.0355 H   0  0  0  0  0  0  0  0  0  0  0  0
    0.6584  -23.5243   23.4329 H   0  0  0  0  0  0  0  0  0  0  0  0
   -0.4058  -23.3080   25.8889 H   0  0  0  0  0  0  0  0  0  0  0  0
    0.3146  -21.7510   28.0745 H   0  0  0  0  0  0  0  0  0  0  0  0
  1  2  2  0
  2  3  1  0
  3  4  1  0
  4  5  1  0
  5  6  1  0
  5  7  1  0
  7  8  2  0
  8  9  1  0
  9 10  1  0
 10 11  2  0
  2 12  1  0
 12 13  1  0
 13 14  2  0
 14 15  1  0
 15 16  1  0
 16 17  2  0
 17 18  1  0
 18 19  2  0
 19 20  1  0
 11  7  1  0
 20 12  2  0
 19 15  1  0
  3 21  1  0
  4 22  1  0
  4 23  1  0
  5 24  1  0
  6 25  1  0
  8 26  1  0
  9 27  1  0
 10 28  1  0
 13 29  1  0
 14 30  1  0
 16 31  1  0
 17 32  1  0
M  END
>  <Energy>  (957) 
110.84279424044976

>  <compound_id>  (957) 
8696

>  <target_id>  (957) 
1

>  <reference_id>  (957) 
107

>  <inspiration_ids>  (957) 
[80, 107]

>  <energy_score>  (957) 
-5.873255182645096

>  <distance_score>  (957) 
15.720356588416148

>  <path>  (957) 
/opt/xchem-fragalysis-2/maxwin/BulkDock/SCRATCH/511020/C8696-P107/C8696-P107.minimised.mol

>  <scratch_subdir>  (957) 
/opt/xchem-fragalysis-2/maxwin/BulkDock/SCRATCH/511020/C8696-P107

>  <fragmenstein_runtime>  (957) 
27.301284790039062

>  <fragmenstein_outcome>  (957) 
too moved

>  <fragmenstein_mode>  (957) 
expansion

>  <fragmenstein_error>  (957) 


$$$$
C8697-P80
     RDKit          3D

 32 35  0  0  0  0  0  0  0  0999 V2000
    0.5438  -13.7939   23.5541 O   0  0  0  0  0  0  0  0  0  0  0  0
   -0.5367  -13.6366   23.0050 C   0  0  0  0  0  0  0  0  0  0  0  0
   -1.8954  -15.0567   23.7233 C   0  0  0  0  0  0  0  0  0  0  0  0
   -2.2566  -15.2042   25.2591 C   0  0  0  0  0  0  0  0  0  0  0  0
   -3.0728  -16.0912   25.9928 C   0  0  0  0  0  0  0  0  0  0  0  0
   -4.2056  -16.5381   25.3389 N   0  0  0  0  0  0  0  0  0  0  0  0
   -5.3566  -17.1727   25.7437 C   0  0  0  0  0  0  0  0  0  0  0  0
   -6.2308  -16.9580   24.7010 C   0  0  0  0  0  0  0  0  0  0  0  0
   -5.6370  -16.2683   23.6675 N   0  0  0  0  0  0  0  0  0  0  0  0
   -4.3963  -16.0066   24.0507 C   0  0  0  0  0  0  0  0  0  0  0  0
   -3.3393  -15.2628   23.4085 N   0  0  0  0  0  0  0  0  0  0  0  0
   -1.2032  -12.1319   21.6623 N   0  0  0  0  0  0  0  0  0  0  0  0
   -0.3015  -10.6595   21.1651 C   0  0  0  0  0  0  0  0  0  0  0  0
   -1.4531   -9.8761   20.6294 C   0  0  0  0  0  0  0  0  0  0  0  0
   -0.9075   -8.2999   20.4628 C   0  0  0  0  0  0  0  0  0  0  0  0
   -0.7566   -7.2829   21.3799 C   0  0  0  0  0  0  0  0  0  0  0  0
   -0.0342   -6.2253   20.8481 N   0  0  0  0  0  0  0  0  0  0  0  0
    0.2902   -6.6023   19.6336 C   0  0  0  0  0  0  0  0  0  0  0  0
   -0.2131   -7.8410   19.3567 N   0  0  0  0  0  0  0  0  0  0  0  0
   -2.0641  -10.4001   21.9046 C   0  0  0  0  0  0  0  0  0  0  0  0
   -1.8835  -14.3498   25.7693 H   0  0  0  0  0  0  0  0  0  0  0  0
   -3.1318  -16.0888   27.0765 H   0  0  0  0  0  0  0  0  0  0  0  0
   -5.4637  -17.6195   26.7209 H   0  0  0  0  0  0  0  0  0  0  0  0
   -7.2744  -17.1970   24.6110 H   0  0  0  0  0  0  0  0  0  0  0  0
   -0.0806  -10.2856   22.1965 H   0  0  0  0  0  0  0  0  0  0  0  0
    0.7450  -10.4294   21.1173 H   0  0  0  0  0  0  0  0  0  0  0  0
   -1.9402  -10.2341   19.7148 H   0  0  0  0  0  0  0  0  0  0  0  0
   -1.0906   -7.2572   22.4087 H   0  0  0  0  0  0  0  0  0  0  0  0
    0.8935   -6.0476   18.9288 H   0  0  0  0  0  0  0  0  0  0  0  0
    0.0227   -8.4229   18.5656 H   0  0  0  0  0  0  0  0  0  0  0  0
   -1.7627   -9.5919   22.6094 H   0  0  0  0  0  0  0  0  0  0  0  0
   -3.1332  -10.4710   21.6727 H   0  0  0  0  0  0  0  0  0  0  0  0
  1  2  2  0
  2  3  1  0
  3  4  1  0
  4  5  2  0
  5  6  1  0
  6  7  1  0
  7  8  2  0
  8  9  1  0
  9 10  2  0
 10 11  1  0
  2 12  1  0
 12 13  1  0
 13 14  1  0
 14 15  1  0
 15 16  2  0
 16 17  1  0
 17 18  2  0
 18 19  1  0
 14 20  1  0
 11  3  2  0
 20 12  1  0
 10  6  1  0
 19 15  1  0
  4 21  1  0
  5 22  1  0
  7 23  1  0
  8 24  1  0
 13 25  1  0
 13 26  1  0
 14 27  1  0
 16 28  1  0
 18 29  1  0
 19 30  1  0
 20 31  1  0
 20 32  1  0
M  END
>  <Energy>  (958) 
641.99355891626999

>  <compound_id>  (958) 
8697

>  <target_id>  (958) 
1

>  <reference_id>  (958) 
80

>  <inspiration_ids>  (958) 
[80, 107]

>  <energy_score>  (958) 
483.81431829760794

>  <distance_score>  (958) 
13.579820709700227

>  <path>  (958) 
/opt/xchem-fragalysis-2/maxwin/BulkDock/SCRATCH/511020/C8697-P80/C8697-P80.minimised.mol

>  <scratch_subdir>  (958) 
/opt/xchem-fragalysis-2/maxwin/BulkDock/SCRATCH/511020/C8697-P80

>  <fragmenstein_runtime>  (958) 
15.96882700920105

>  <fragmenstein_outcome>  (958) 
too moved

>  <fragmenstein_mode>  (958) 
expansion

>  <fragmenstein_error>  (958) 


$$$$
C8697-P107
     RDKit          3D

 32 35  0  0  0  0  0  0  0  0999 V2000
   -2.8040  -18.5151   27.3326 O   0  0  0  0  0  0  0  0  0  0  0  0
   -3.4576  -17.5091   27.4290 C   0  0  0  0  0  0  0  0  0  0  0  0
   -4.4067  -17.4493   28.6315 C   0  0  0  0  0  0  0  0  0  0  0  0
   -5.7883  -16.9139   28.4065 C   0  0  0  0  0  0  0  0  0  0  0  0
   -6.5094  -16.7379   29.5240 C   0  0  0  0  0  0  0  0  0  0  0  0
   -5.9863  -17.1361   30.7485 N   0  0  0  0  0  0  0  0  0  0  0  0
   -6.4408  -16.9274   32.0228 C   0  0  0  0  0  0  0  0  0  0  0  0
   -5.5921  -17.6489   32.8266 C   0  0  0  0  0  0  0  0  0  0  0  0
   -4.5394  -18.1395   32.1010 N   0  0  0  0  0  0  0  0  0  0  0  0
   -4.7632  -17.7843   30.8522 C   0  0  0  0  0  0  0  0  0  0  0  0
   -3.9450  -17.8904   29.7670 N   0  0  0  0  0  0  0  0  0  0  0  0
   -3.5223  -16.3551   26.5761 N   0  0  0  0  0  0  0  0  0  0  0  0
   -2.8676  -16.0757   25.2196 C   0  0  0  0  0  0  0  0  0  0  0  0
   -2.1022  -14.7175   25.5066 C   0  0  0  0  0  0  0  0  0  0  0  0
   -0.4353  -14.1820   24.6422 C   0  0  0  0  0  0  0  0  0  0  0  0
    0.7124  -13.5413   25.8373 C   0  0  0  0  0  0  0  0  0  0  0  0
    1.8250  -13.0935   25.4449 N   0  0  0  0  0  0  0  0  0  0  0  0
    1.9527  -13.1976   24.1899 C   0  0  0  0  0  0  0  0  0  0  0  0
    0.6116  -14.1533   23.7651 N   0  0  0  0  0  0  0  0  0  0  0  0
   -2.4491  -15.2406   27.0257 C   0  0  0  0  0  0  0  0  0  0  0  0
   -6.1127  -16.6261   27.4179 H   0  0  0  0  0  0  0  0  0  0  0  0
   -7.4843  -16.2741   29.5245 H   0  0  0  0  0  0  0  0  0  0  0  0
   -7.3151  -16.3389   32.2463 H   0  0  0  0  0  0  0  0  0  0  0  0
   -5.6568  -17.8060   33.8949 H   0  0  0  0  0  0  0  0  0  0  0  0
   -2.3334  -17.0008   25.1296 H   0  0  0  0  0  0  0  0  0  0  0  0
   -3.6134  -16.0890   24.4114 H   0  0  0  0  0  0  0  0  0  0  0  0
   -2.5108  -13.6911   25.5550 H   0  0  0  0  0  0  0  0  0  0  0  0
    0.4097  -13.5133   26.8151 H   0  0  0  0  0  0  0  0  0  0  0  0
    2.7846  -13.0402   23.5115 H   0  0  0  0  0  0  0  0  0  0  0  0
    0.4444  -14.3231   22.7648 H   0  0  0  0  0  0  0  0  0  0  0  0
   -3.0157  -14.5322   27.6490 H   0  0  0  0  0  0  0  0  0  0  0  0
   -1.7410  -15.6703   27.7413 H   0  0  0  0  0  0  0  0  0  0  0  0
  1  2  2  0
  2  3  1  0
  3  4  1  0
  4  5  2  0
  5  6  1  0
  6  7  1  0
  7  8  2  0
  8  9  1  0
  9 10  2  0
 10 11  1  0
  2 12  1  0
 12 13  1  0
 13 14  1  0
 14 15  1  0
 15 16  2  0
 16 17  1  0
 17 18  2  0
 18 19  1  0
 14 20  1  0
 11  3  2  0
 20 12  1  0
 10  6  1  0
 19 15  1  0
  4 21  1  0
  5 22  1  0
  7 23  1  0
  8 24  1  0
 13 25  1  0
 13 26  1  0
 14 27  1  0
 16 28  1  0
 18 29  1  0
 19 30  1  0
 20 31  1  0
 20 32  1  0
M  END
>  <Energy>  (959) 
287.23130135776489

>  <compound_id>  (959) 
8697

>  <target_id>  (959) 
1

>  <reference_id>  (959) 
107

>  <inspiration_ids>  (959) 
[80, 107]

>  <energy_score>  (959) 
129.05206073910426

>  <distance_score>  (959) 
13.625754969202209

>  <path>  (959) 
/opt/xchem-fragalysis-2/maxwin/BulkDock/SCRATCH/511020/C8697-P107/C8697-P107.minimised.mol

>  <scratch_subdir>  (959) 
/opt/xchem-fragalysis-2/maxwin/BulkDock/SCRATCH/511020/C8697-P107

>  <fragmenstein_runtime>  (959) 
26.79071807861328

>  <fragmenstein_outcome>  (959) 
too moved

>  <fragmenstein_mode>  (959) 
expansion

>  <fragmenstein_error>  (959) 


$$$$
C8695-P80
     RDKit          3D

 36 40  0  0  0  0  0  0  0  0999 V2000
    0.6894  -13.7222   16.9351 O   0  0  0  0  0  0  0  0  0  0  0  0
    0.9966  -14.4190   15.9947 C   0  0  0  0  0  0  0  0  0  0  0  0
    2.4730  -15.7931   16.5806 C   0  0  0  0  0  0  0  0  0  0  0  0
    3.7767  -16.8149   15.9762 C   0  0  0  0  0  0  0  0  0  0  0  0
    3.7623  -18.1893   16.0011 C   0  0  0  0  0  0  0  0  0  0  0  0
    2.7417  -18.8319   16.6792 N   0  0  0  0  0  0  0  0  0  0  0  0
    2.3380  -20.1277   16.8899 C   0  0  0  0  0  0  0  0  0  0  0  0
    1.2644  -20.0435   17.7515 C   0  0  0  0  0  0  0  0  0  0  0  0
    1.0455  -18.7381   18.0922 N   0  0  0  0  0  0  0  0  0  0  0  0
    1.9830  -18.0328   17.4642 C   0  0  0  0  0  0  0  0  0  0  0  0
    2.4618  -16.7086   17.6141 N   0  0  0  0  0  0  0  0  0  0  0  0
    0.4538  -14.3723   14.0258 N   0  0  0  0  0  0  0  0  0  0  0  0
   -0.6473  -13.4376   13.4519 C   0  0  0  0  0  0  0  0  0  0  0  0
   -0.5779  -11.9205   12.6770 C   0  0  0  0  0  0  0  0  0  0  0  0
   -0.3124  -12.6398   11.4418 C   0  0  0  0  0  0  0  0  0  0  0  0
   -0.3377  -13.4310   13.1256 C   0  0  0  0  0  0  0  0  0  0  0  0
    0.5938  -14.5721   11.7198 C   0  0  0  0  0  0  0  0  0  0  0  0
    1.5394  -14.1023   10.9100 N   0  0  0  0  0  0  0  0  0  0  0  0
    1.9371  -15.1454   10.1346 C   0  0  0  0  0  0  0  0  0  0  0  0
    1.2400  -16.2723   10.4875 C   0  0  0  0  0  0  0  0  0  0  0  0
    0.3495  -15.8864   11.4588 N   0  0  0  0  0  0  0  0  0  0  0  0
    0.6456  -12.2074   13.2114 C   0  0  0  0  0  0  0  0  0  0  0  0
    4.7336  -16.3611   15.7786 H   0  0  0  0  0  0  0  0  0  0  0  0
    4.5710  -18.8018   15.6273 H   0  0  0  0  0  0  0  0  0  0  0  0
    2.8265  -20.9644   16.4141 H   0  0  0  0  0  0  0  0  0  0  0  0
    0.6538  -20.8443   18.1473 H   0  0  0  0  0  0  0  0  0  0  0  0
   -1.3811  -14.6362   12.9423 H   0  0  0  0  0  0  0  0  0  0  0  0
   -1.2632  -13.7232   14.4222 H   0  0  0  0  0  0  0  0  0  0  0  0
   -0.9790  -10.9181   12.6482 H   0  0  0  0  0  0  0  0  0  0  0  0
   -1.0624  -12.9818   10.7222 H   0  0  0  0  0  0  0  0  0  0  0  0
    0.4941  -12.1556   10.8718 H   0  0  0  0  0  0  0  0  0  0  0  0
    2.7088  -15.0377    9.3839 H   0  0  0  0  0  0  0  0  0  0  0  0
    1.2766  -17.2895   10.1253 H   0  0  0  0  0  0  0  0  0  0  0  0
   -0.3090  -16.4801   11.9431 H   0  0  0  0  0  0  0  0  0  0  0  0
    1.0729  -12.1200   14.1904 H   0  0  0  0  0  0  0  0  0  0  0  0
    1.1247  -11.4555   12.5244 H   0  0  0  0  0  0  0  0  0  0  0  0
  1  2  2  0
  2  3  1  0
  3  4  1  0
  4  5  2  0
  5  6  1  0
  6  7  1  0
  7  8  2  0
  8  9  1  0
  9 10  2  0
 10 11  1  0
  2 12  1  0
 12 13  1  0
 13 14  1  0
 14 15  1  0
 15 16  1  0
 16 17  1  0
 17 18  2  0
 18 19  1  0
 19 20  2  0
 20 21  1  0
 16 22  1  0
 11  3  2  0
 16 12  1  0
 21 17  1  0
 10  6  1  0
 22 14  1  0
  4 23  1  0
  5 24  1  0
  7 25  1  0
  8 26  1  0
 13 27  1  0
 13 28  1  0
 14 29  1  0
 15 30  1  0
 15 31  1  0
 19 32  1  0
 20 33  1  0
 21 34  1  0
 22 35  1  0
 22 36  1  0
M  END
>  <Energy>  (960) 
1272.8768507039645

>  <compound_id>  (960) 
8695

>  <target_id>  (960) 
1

>  <reference_id>  (960) 
80

>  <inspiration_ids>  (960) 
[80, 107]

>  <energy_score>  (960) 
1133.1171284871239

>  <distance_score>  (960) 
19.861725289553842

>  <path>  (960) 
/opt/xchem-fragalysis-2/maxwin/BulkDock/SCRATCH/511020/C8695-P80/C8695-P80.minimised.mol

>  <scratch_subdir>  (960) 
/opt/xchem-fragalysis-2/maxwin/BulkDock/SCRATCH/511020/C8695-P80

>  <fragmenstein_runtime>  (960) 
38.58245491981506

>  <fragmenstein_outcome>  (960) 
too moved

>  <fragmenstein_mode>  (960) 
expansion

>  <fragmenstein_error>  (960) 


$$$$
C8695-P107
     RDKit          3D

 36 40  0  0  0  0  0  0  0  0999 V2000
   -0.3871  -19.1519   18.8477 O   0  0  0  0  0  0  0  0  0  0  0  0
   -0.0529  -20.0700   19.5293 C   0  0  0  0  0  0  0  0  0  0  0  0
   -0.8924  -20.3590   20.8809 C   0  0  0  0  0  0  0  0  0  0  0  0
   -0.6437  -19.4538   22.0567 C   0  0  0  0  0  0  0  0  0  0  0  0
   -1.3826  -19.6703   23.1626 C   0  0  0  0  0  0  0  0  0  0  0  0
   -2.3226  -20.6886   23.1773 N   0  0  0  0  0  0  0  0  0  0  0  0
   -3.1628  -21.1078   24.1831 C   0  0  0  0  0  0  0  0  0  0  0  0
   -3.8427  -22.1768   23.6542 C   0  0  0  0  0  0  0  0  0  0  0  0
   -3.4683  -22.3909   22.3487 N   0  0  0  0  0  0  0  0  0  0  0  0
   -2.5313  -21.4996   22.0639 C   0  0  0  0  0  0  0  0  0  0  0  0
   -1.7985  -21.3179   20.9011 N   0  0  0  0  0  0  0  0  0  0  0  0
    0.9467  -21.0760   19.3252 N   0  0  0  0  0  0  0  0  0  0  0  0
    2.0207  -21.4618   17.7678 C   0  0  0  0  0  0  0  0  0  0  0  0
    3.5519  -22.2788   18.1666 C   0  0  0  0  0  0  0  0  0  0  0  0
    2.3923  -23.0798   18.3446 C   0  0  0  0  0  0  0  0  0  0  0  0
    1.9841  -21.2220   18.2829 C   0  0  0  0  0  0  0  0  0  0  0  0
    3.0786  -19.5931   17.7093 C   0  0  0  0  0  0  0  0  0  0  0  0
    4.3900  -19.6290   17.4934 N   0  0  0  0  0  0  0  0  0  0  0  0
    4.7505  -18.3875   17.0213 C   0  0  0  0  0  0  0  0  0  0  0  0
    3.6433  -17.5899   16.9205 C   0  0  0  0  0  0  0  0  0  0  0  0
    2.5715  -18.3967   17.2564 N   0  0  0  0  0  0  0  0  0  0  0  0
    3.3744  -21.4923   19.4207 C   0  0  0  0  0  0  0  0  0  0  0  0
    0.0895  -18.6631   21.9633 H   0  0  0  0  0  0  0  0  0  0  0  0
   -1.2801  -19.0731   24.0587 H   0  0  0  0  0  0  0  0  0  0  0  0
   -3.1793  -20.6398   25.1556 H   0  0  0  0  0  0  0  0  0  0  0  0
   -4.5746  -22.8147   24.1318 H   0  0  0  0  0  0  0  0  0  0  0  0
    1.1584  -22.2386   17.1052 H   0  0  0  0  0  0  0  0  0  0  0  0
    1.9407  -20.8686   16.5899 H   0  0  0  0  0  0  0  0  0  0  0  0
    4.1185  -22.0956   17.2533 H   0  0  0  0  0  0  0  0  0  0  0  0
    2.2231  -23.5970   19.2978 H   0  0  0  0  0  0  0  0  0  0  0  0
    2.1947  -23.7737   17.5123 H   0  0  0  0  0  0  0  0  0  0  0  0
    5.7840  -18.1407   16.8199 H   0  0  0  0  0  0  0  0  0  0  0  0
    3.5134  -16.5447   16.6917 H   0  0  0  0  0  0  0  0  0  0  0  0
    1.6112  -18.1136   17.3694 H   0  0  0  0  0  0  0  0  0  0  0  0
    4.0736  -20.6838   19.6362 H   0  0  0  0  0  0  0  0  0  0  0  0
    3.1597  -22.0263   20.3545 H   0  0  0  0  0  0  0  0  0  0  0  0
  1  2  2  0
  2  3  1  0
  3  4  1  0
  4  5  2  0
  5  6  1  0
  6  7  1  0
  7  8  2  0
  8  9  1  0
  9 10  2  0
 10 11  1  0
  2 12  1  0
 12 13  1  0
 13 14  1  0
 14 15  1  0
 15 16  1  0
 16 17  1  0
 17 18  2  0
 18 19  1  0
 19 20  2  0
 20 21  1  0
 16 22  1  0
 11  3  2  0
 16 12  1  0
 21 17  1  0
 10  6  1  0
 22 14  1  0
  4 23  1  0
  5 24  1  0
  7 25  1  0
  8 26  1  0
 13 27  1  0
 13 28  1  0
 14 29  1  0
 15 30  1  0
 15 31  1  0
 19 32  1  0
 20 33  1  0
 21 34  1  0
 22 35  1  0
 22 36  1  0
M  END
>  <Energy>  (961) 
837.49612005893971

>  <compound_id>  (961) 
8695

>  <target_id>  (961) 
1

>  <reference_id>  (961) 
107

>  <inspiration_ids>  (961) 
[80, 107]

>  <energy_score>  (961) 
697.7363978421156

>  <distance_score>  (961) 
15.396946747991965

>  <path>  (961) 
/opt/xchem-fragalysis-2/maxwin/BulkDock/SCRATCH/511020/C8695-P107/C8695-P107.minimised.mol

>  <scratch_subdir>  (961) 
/opt/xchem-fragalysis-2/maxwin/BulkDock/SCRATCH/511020/C8695-P107

>  <fragmenstein_runtime>  (961) 
20.650882482528687

>  <fragmenstein_outcome>  (961) 
too moved

>  <fragmenstein_mode>  (961) 
expansion

>  <fragmenstein_error>  (961) 


$$$$
C8698-P80
     RDKit          3D

 32 35  0  0  0  0  0  0  0  0999 V2000
   -5.0293  -13.1410   24.9901 O   0  0  0  0  0  0  0  0  0  0  0  0
   -6.0037  -12.4211   25.0496 C   0  0  0  0  0  0  0  0  0  0  0  0
   -7.2470  -13.2324   25.5206 C   0  0  0  0  0  0  0  0  0  0  0  0
   -7.4267  -14.5735   24.8335 C   0  0  0  0  0  0  0  0  0  0  0  0
   -8.1782  -15.4798   25.4785 C   0  0  0  0  0  0  0  0  0  0  0  0
   -8.7973  -15.1261   26.6649 N   0  0  0  0  0  0  0  0  0  0  0  0
   -9.5497  -15.8769   27.5311 C   0  0  0  0  0  0  0  0  0  0  0  0
   -9.9968  -14.9948   28.4810 C   0  0  0  0  0  0  0  0  0  0  0  0
   -9.4853  -13.7425   28.2516 N   0  0  0  0  0  0  0  0  0  0  0  0
   -8.7266  -13.8297   27.1723 C   0  0  0  0  0  0  0  0  0  0  0  0
   -7.9105  -12.8789   26.5940 N   0  0  0  0  0  0  0  0  0  0  0  0
   -6.1283  -10.9881   24.8548 N   0  0  0  0  0  0  0  0  0  0  0  0
   -5.0698   -9.9195   24.6210 C   0  0  0  0  0  0  0  0  0  0  0  0
   -5.3965   -9.5235   23.2107 C   0  0  0  0  0  0  0  0  0  0  0  0
   -4.0804   -9.4768   22.1175 C   0  0  0  0  0  0  0  0  0  0  0  0
   -2.8038   -9.3059   22.4522 N   0  0  0  0  0  0  0  0  0  0  0  0
   -2.0573   -9.3325   21.2939 C   0  0  0  0  0  0  0  0  0  0  0  0
   -2.8774   -9.5726   20.2254 C   0  0  0  0  0  0  0  0  0  0  0  0
   -4.1477   -9.6446   20.7500 N   0  0  0  0  0  0  0  0  0  0  0  0
   -6.4401  -10.6272   23.3069 C   0  0  0  0  0  0  0  0  0  0  0  0
   -6.8833  -14.7708   23.9196 H   0  0  0  0  0  0  0  0  0  0  0  0
   -8.3273  -16.4807   25.1086 H   0  0  0  0  0  0  0  0  0  0  0  0
   -9.6930  -16.9322   27.4018 H   0  0  0  0  0  0  0  0  0  0  0  0
  -10.6460  -15.1853   29.3261 H   0  0  0  0  0  0  0  0  0  0  0  0
   -4.0726  -10.3400   24.7923 H   0  0  0  0  0  0  0  0  0  0  0  0
   -5.2284   -9.1269   25.3625 H   0  0  0  0  0  0  0  0  0  0  0  0
   -5.8670   -8.5321   23.1494 H   0  0  0  0  0  0  0  0  0  0  0  0
   -0.9806   -9.2100   21.3060 H   0  0  0  0  0  0  0  0  0  0  0  0
   -2.6769   -9.6889   19.1699 H   0  0  0  0  0  0  0  0  0  0  0  0
   -4.9934   -9.8252   20.2314 H   0  0  0  0  0  0  0  0  0  0  0  0
   -7.4703  -10.2422   23.2729 H   0  0  0  0  0  0  0  0  0  0  0  0
   -6.4300  -11.4933   22.6429 H   0  0  0  0  0  0  0  0  0  0  0  0
  1  2  2  0
  2  3  1  0
  3  4  1  0
  4  5  2  0
  5  6  1  0
  6  7  1  0
  7  8  2  0
  8  9  1  0
  9 10  2  0
 10 11  1  0
  2 12  1  0
 12 13  1  0
 13 14  1  0
 14 15  1  0
 15 16  2  0
 16 17  1  0
 17 18  2  0
 18 19  1  0
 14 20  1  0
 11  3  2  0
 20 12  1  0
 10  6  1  0
 19 15  1  0
  4 21  1  0
  5 22  1  0
  7 23  1  0
  8 24  1  0
 13 25  1  0
 13 26  1  0
 14 27  1  0
 17 28  1  0
 18 29  1  0
 19 30  1  0
 20 31  1  0
 20 32  1  0
M  END
>  <Energy>  (962) 
113.35532234779694

>  <compound_id>  (962) 
8698

>  <target_id>  (962) 
1

>  <reference_id>  (962) 
80

>  <inspiration_ids>  (962) 
[80, 107]

>  <energy_score>  (962) 
4.949875317058741

>  <distance_score>  (962) 
13.677132716648257

>  <path>  (962) 
/opt/xchem-fragalysis-2/maxwin/BulkDock/SCRATCH/511020/C8698-P80/C8698-P80.minimised.mol

>  <scratch_subdir>  (962) 
/opt/xchem-fragalysis-2/maxwin/BulkDock/SCRATCH/511020/C8698-P80

>  <fragmenstein_runtime>  (962) 
23.934105396270752

>  <fragmenstein_outcome>  (962) 
too moved

>  <fragmenstein_mode>  (962) 
expansion

>  <fragmenstein_error>  (962) 


$$$$
C8698-P107
     RDKit          3D

 32 35  0  0  0  0  0  0  0  0999 V2000
   -6.2868  -13.9897   22.8370 O   0  0  0  0  0  0  0  0  0  0  0  0
   -7.0847  -13.1475   23.1891 C   0  0  0  0  0  0  0  0  0  0  0  0
   -7.9516  -13.6925   24.3567 C   0  0  0  0  0  0  0  0  0  0  0  0
   -8.7688  -14.9173   23.9624 C   0  0  0  0  0  0  0  0  0  0  0  0
   -9.3275  -15.6240   24.9572 C   0  0  0  0  0  0  0  0  0  0  0  0
   -9.1753  -15.1829   26.2595 N   0  0  0  0  0  0  0  0  0  0  0  0
   -9.6399  -15.7189   27.4341 C   0  0  0  0  0  0  0  0  0  0  0  0
   -9.2366  -14.8439   28.4105 C   0  0  0  0  0  0  0  0  0  0  0  0
   -8.5216  -13.8066   27.8681 N   0  0  0  0  0  0  0  0  0  0  0  0
   -8.4772  -14.0107   26.5637 C   0  0  0  0  0  0  0  0  0  0  0  0
   -7.8422  -13.2650   25.5872 N   0  0  0  0  0  0  0  0  0  0  0  0
   -7.3801  -11.8361   22.6313 N   0  0  0  0  0  0  0  0  0  0  0  0
   -6.8582  -11.1432   21.3630 C   0  0  0  0  0  0  0  0  0  0  0  0
   -6.1541   -9.9829   21.9977 C   0  0  0  0  0  0  0  0  0  0  0  0
   -4.6180   -9.6954   21.4169 C   0  0  0  0  0  0  0  0  0  0  0  0
   -4.2068  -10.0087   20.1945 N   0  0  0  0  0  0  0  0  0  0  0  0
   -2.8572   -9.7190   20.1389 C   0  0  0  0  0  0  0  0  0  0  0  0
   -2.4442   -9.1707   21.3237 C   0  0  0  0  0  0  0  0  0  0  0  0
   -3.5802   -9.0925   22.0942 N   0  0  0  0  0  0  0  0  0  0  0  0
   -6.4628  -10.6914   23.3045 C   0  0  0  0  0  0  0  0  0  0  0  0
   -8.8176  -15.1932   22.9169 H   0  0  0  0  0  0  0  0  0  0  0  0
   -9.9004  -16.5233   24.7910 H   0  0  0  0  0  0  0  0  0  0  0  0
  -10.2111  -16.6289   27.4784 H   0  0  0  0  0  0  0  0  0  0  0  0
   -9.4213  -14.8887   29.4753 H   0  0  0  0  0  0  0  0  0  0  0  0
   -6.2349  -11.8379   20.7866 H   0  0  0  0  0  0  0  0  0  0  0  0
   -7.7021  -10.8591   20.7223 H   0  0  0  0  0  0  0  0  0  0  0  0
   -6.7174   -9.0450   21.8997 H   0  0  0  0  0  0  0  0  0  0  0  0
   -2.2697   -9.9242   19.2531 H   0  0  0  0  0  0  0  0  0  0  0  0
   -1.4781   -8.8386   21.6758 H   0  0  0  0  0  0  0  0  0  0  0  0
   -3.6294   -8.7379   23.0446 H   0  0  0  0  0  0  0  0  0  0  0  0
   -5.6712  -11.0840   23.9441 H   0  0  0  0  0  0  0  0  0  0  0  0
   -7.1153  -10.1018   23.9649 H   0  0  0  0  0  0  0  0  0  0  0  0
  1  2  2  0
  2  3  1  0
  3  4  1  0
  4  5  2  0
  5  6  1  0
  6  7  1  0
  7  8  2  0
  8  9  1  0
  9 10  2  0
 10 11  1  0
  2 12  1  0
 12 13  1  0
 13 14  1  0
 14 15  1  0
 15 16  2  0
 16 17  1  0
 17 18  2  0
 18 19  1  0
 14 20  1  0
 11  3  2  0
 20 12  1  0
 10  6  1  0
 19 15  1  0
  4 21  1  0
  5 22  1  0
  7 23  1  0
  8 24  1  0
 13 25  1  0
 13 26  1  0
 14 27  1  0
 17 28  1  0
 18 29  1  0
 19 30  1  0
 20 31  1  0
 20 32  1  0
M  END
>  <Energy>  (963) 
103.96137696651381

>  <compound_id>  (963) 
8698

>  <target_id>  (963) 
1

>  <reference_id>  (963) 
107

>  <inspiration_ids>  (963) 
[80, 107]

>  <energy_score>  (963) 
-4.44407006422432

>  <distance_score>  (963) 
13.836603107706214

>  <path>  (963) 
/opt/xchem-fragalysis-2/maxwin/BulkDock/SCRATCH/511020/C8698-P107/C8698-P107.minimised.mol

>  <scratch_subdir>  (963) 
/opt/xchem-fragalysis-2/maxwin/BulkDock/SCRATCH/511020/C8698-P107

>  <fragmenstein_runtime>  (963) 
26.2903094291687

>  <fragmenstein_outcome>  (963) 
too moved

>  <fragmenstein_mode>  (963) 
expansion

>  <fragmenstein_error>  (963) 


$$$$
C8699-P80
     RDKit          3D

 35 38  0  0  0  0  0  0  0  0999 V2000
    0.9892  -17.3528   18.6128 O   0  0  0  0  0  0  0  0  0  0  0  0
    0.8819  -16.5875   19.6078 C   0  0  0  0  0  0  0  0  0  0  0  0
   -0.4186  -17.1031   20.5528 C   0  0  0  0  0  0  0  0  0  0  0  0
   -0.3339  -18.5355   21.1729 C   0  0  0  0  0  0  0  0  0  0  0  0
   -1.4271  -19.2282   21.5316 C   0  0  0  0  0  0  0  0  0  0  0  0
   -2.6599  -18.7264   21.1987 N   0  0  0  0  0  0  0  0  0  0  0  0
   -3.9134  -19.1849   21.5259 C   0  0  0  0  0  0  0  0  0  0  0  0
   -4.7727  -18.3043   20.9203 C   0  0  0  0  0  0  0  0  0  0  0  0
   -4.0769  -17.3400   20.2182 N   0  0  0  0  0  0  0  0  0  0  0  0
   -2.7804  -17.5894   20.3922 C   0  0  0  0  0  0  0  0  0  0  0  0
   -1.6460  -16.8069   20.0444 N   0  0  0  0  0  0  0  0  0  0  0  0
    2.0179  -14.9991   19.7701 N   0  0  0  0  0  0  0  0  0  0  0  0
    3.1008  -14.5507   19.0155 C   0  0  0  0  0  0  0  0  0  0  0  0
    4.4462  -13.2281   19.6389 C   0  0  0  0  0  0  0  0  0  0  0  0
    4.2364  -12.3541   18.5604 C   0  0  0  0  0  0  0  0  0  0  0  0
    5.6528  -10.8229   18.8751 C   0  0  0  0  0  0  0  0  0  0  0  0
    5.2022   -9.2706   18.9919 N   0  0  0  0  0  0  0  0  0  0  0  0
    5.7408   -7.8180   19.2174 C   0  0  0  0  0  0  0  0  0  0  0  0
    5.0369   -7.5650   18.1959 C   0  0  0  0  0  0  0  0  0  0  0  0
    4.7095   -9.3457   18.1308 N   0  0  0  0  0  0  0  0  0  0  0  0
    3.3033  -14.1613   18.4552 C   0  0  0  0  0  0  0  0  0  0  0  0
    0.6112  -19.0534   21.2024 H   0  0  0  0  0  0  0  0  0  0  0  0
   -1.3827  -20.2083   21.9865 H   0  0  0  0  0  0  0  0  0  0  0  0
   -4.0680  -20.0602   22.1381 H   0  0  0  0  0  0  0  0  0  0  0  0
   -5.8543  -18.3105   20.9312 H   0  0  0  0  0  0  0  0  0  0  0  0
    3.6660  -15.7465   18.8386 H   0  0  0  0  0  0  0  0  0  0  0  0
    2.8092  -14.1514   20.2105 H   0  0  0  0  0  0  0  0  0  0  0  0
    4.2245  -12.8555   20.6407 H   0  0  0  0  0  0  0  0  0  0  0  0
    5.4673  -13.6070   19.5998 H   0  0  0  0  0  0  0  0  0  0  0  0
    3.5739  -11.9688   17.7725 H   0  0  0  0  0  0  0  0  0  0  0  0
    6.7462   -7.5385   19.6068 H   0  0  0  0  0  0  0  0  0  0  0  0
    4.8239   -6.8642   17.3994 H   0  0  0  0  0  0  0  0  0  0  0  0
    3.7564   -9.6175   17.9550 H   0  0  0  0  0  0  0  0  0  0  0  0
    2.2131  -13.9076   17.7664 H   0  0  0  0  0  0  0  0  0  0  0  0
    3.9623  -14.8342   17.5685 H   0  0  0  0  0  0  0  0  0  0  0  0
  1  2  2  0
  2  3  1  0
  3  4  1  0
  4  5  2  0
  5  6  1  0
  6  7  1  0
  7  8  2  0
  8  9  1  0
  9 10  2  0
 10 11  1  0
  2 12  1  0
 12 13  1  0
 13 14  1  0
 14 15  1  0
 15 16  1  0
 16 17  2  0
 17 18  1  0
 18 19  2  0
 19 20  1  0
 15 21  1  0
 11  3  2  0
 21 12  1  0
 10  6  1  0
 20 16  1  0
  4 22  1  0
  5 23  1  0
  7 24  1  0
  8 25  1  0
 13 26  1  0
 13 27  1  0
 14 28  1  0
 14 29  1  0
 15 30  1  0
 18 31  1  0
 19 32  1  0
 20 33  1  0
 21 34  1  0
 21 35  1  0
M  END
>  <Energy>  (964) 
1767.0280512468989

>  <compound_id>  (964) 
8699

>  <target_id>  (964) 
1

>  <reference_id>  (964) 
80

>  <inspiration_ids>  (964) 
[80, 107]

>  <energy_score>  (964) 
1636.2515858738548

>  <distance_score>  (964) 
13.401875690307286

>  <path>  (964) 
/opt/xchem-fragalysis-2/maxwin/BulkDock/SCRATCH/511020/C8699-P80/C8699-P80.minimised.mol

>  <scratch_subdir>  (964) 
/opt/xchem-fragalysis-2/maxwin/BulkDock/SCRATCH/511020/C8699-P80

>  <fragmenstein_runtime>  (964) 
15.789705991744995

>  <fragmenstein_outcome>  (964) 
too moved

>  <fragmenstein_mode>  (964) 
expansion

>  <fragmenstein_error>  (964) 


$$$$
C8699-P107
     RDKit          3D

 35 38  0  0  0  0  0  0  0  0999 V2000
   -8.9884  -14.0736   21.3529 O   0  0  0  0  0  0  0  0  0  0  0  0
   -7.9186  -13.9766   21.7568 C   0  0  0  0  0  0  0  0  0  0  0  0
   -7.6670  -14.7622   23.1090 C   0  0  0  0  0  0  0  0  0  0  0  0
   -6.4387  -15.6142   23.2546 C   0  0  0  0  0  0  0  0  0  0  0  0
   -6.3003  -16.2630   24.4285 C   0  0  0  0  0  0  0  0  0  0  0  0
   -7.2819  -16.1446   25.4067 N   0  0  0  0  0  0  0  0  0  0  0  0
   -7.3395  -16.6481   26.6853 C   0  0  0  0  0  0  0  0  0  0  0  0
   -8.5829  -16.2964   27.1547 C   0  0  0  0  0  0  0  0  0  0  0  0
   -9.2651  -15.5639   26.2152 N   0  0  0  0  0  0  0  0  0  0  0  0
   -8.4483  -15.4215   25.1844 C   0  0  0  0  0  0  0  0  0  0  0  0
   -8.6115  -14.7042   24.0253 N   0  0  0  0  0  0  0  0  0  0  0  0
   -6.6115  -13.0937   21.2658 N   0  0  0  0  0  0  0  0  0  0  0  0
   -6.6517  -12.1150   19.6421 C   0  0  0  0  0  0  0  0  0  0  0  0
   -5.6304  -12.5117   18.4806 C   0  0  0  0  0  0  0  0  0  0  0  0
   -4.7605  -12.1062   19.5396 C   0  0  0  0  0  0  0  0  0  0  0  0
   -4.0487  -10.7772   19.3243 C   0  0  0  0  0  0  0  0  0  0  0  0
   -4.5872   -9.5734   19.3312 N   0  0  0  0  0  0  0  0  0  0  0  0
   -3.5704   -8.6788   19.1140 C   0  0  0  0  0  0  0  0  0  0  0  0
   -2.3862   -9.3420   18.9565 C   0  0  0  0  0  0  0  0  0  0  0  0
   -2.6904  -10.6699   19.0809 N   0  0  0  0  0  0  0  0  0  0  0  0
   -6.3531  -12.0941   20.3078 C   0  0  0  0  0  0  0  0  0  0  0  0
   -5.7280  -15.6626   22.4417 H   0  0  0  0  0  0  0  0  0  0  0  0
   -5.4453  -16.8861   24.6586 H   0  0  0  0  0  0  0  0  0  0  0  0
   -6.5296  -17.2131   27.1236 H   0  0  0  0  0  0  0  0  0  0  0  0
   -9.0248  -16.5267   28.1147 H   0  0  0  0  0  0  0  0  0  0  0  0
   -7.5376  -11.2598   19.3102 H   0  0  0  0  0  0  0  0  0  0  0  0
   -7.5083  -12.8832   19.1626 H   0  0  0  0  0  0  0  0  0  0  0  0
   -5.6401  -13.5811   18.2509 H   0  0  0  0  0  0  0  0  0  0  0  0
   -5.7144  -11.8649   17.6046 H   0  0  0  0  0  0  0  0  0  0  0  0
   -4.1132  -12.9223   19.8662 H   0  0  0  0  0  0  0  0  0  0  0  0
   -3.7566   -7.6118   19.0995 H   0  0  0  0  0  0  0  0  0  0  0  0
   -1.3782   -8.9943   18.8031 H   0  0  0  0  0  0  0  0  0  0  0  0
   -2.0236  -11.4289   19.0360 H   0  0  0  0  0  0  0  0  0  0  0  0
   -5.6198  -11.7260   21.1914 H   0  0  0  0  0  0  0  0  0  0  0  0
   -6.7844  -10.9567   20.8875 H   0  0  0  0  0  0  0  0  0  0  0  0
  1  2  2  0
  2  3  1  0
  3  4  1  0
  4  5  2  0
  5  6  1  0
  6  7  1  0
  7  8  2  0
  8  9  1  0
  9 10  2  0
 10 11  1  0
  2 12  1  0
 12 13  1  0
 13 14  1  0
 14 15  1  0
 15 16  1  0
 16 17  2  0
 17 18  1  0
 18 19  2  0
 19 20  1  0
 15 21  1  0
 11  3  2  0
 21 12  1  0
 10  6  1  0
 20 16  1  0
  4 22  1  0
  5 23  1  0
  7 24  1  0
  8 25  1  0
 13 26  1  0
 13 27  1  0
 14 28  1  0
 14 29  1  0
 15 30  1  0
 18 31  1  0
 19 32  1  0
 20 33  1  0
 21 34  1  0
 21 35  1  0
M  END
>  <Energy>  (965) 
787.15247871063264

>  <compound_id>  (965) 
8699

>  <target_id>  (965) 
1

>  <reference_id>  (965) 
107

>  <inspiration_ids>  (965) 
[80, 107]

>  <energy_score>  (965) 
656.376013337623

>  <distance_score>  (965) 
13.741303678395042

>  <path>  (965) 
/opt/xchem-fragalysis-2/maxwin/BulkDock/SCRATCH/511020/C8699-P107/C8699-P107.minimised.mol

>  <scratch_subdir>  (965) 
/opt/xchem-fragalysis-2/maxwin/BulkDock/SCRATCH/511020/C8699-P107

>  <fragmenstein_runtime>  (965) 
34.91225528717041

>  <fragmenstein_outcome>  (965) 
too moved

>  <fragmenstein_mode>  (965) 
expansion

>  <fragmenstein_error>  (965) 


$$$$
C8692-P80
     RDKit          3D

 37 39  0  0  0  0  0  0  0  0999 V2000
    4.8055   -8.3494   12.6539 C   0  0  0  0  0  0  0  0  0  0  0  0
    4.9762   -9.2493   13.7578 N   0  0  0  0  0  0  0  0  0  0  0  0
    5.6845  -10.4050   13.7310 C   0  0  0  0  0  0  0  0  0  0  0  0
    5.4253  -11.1334   14.7919 N   0  0  0  0  0  0  0  0  0  0  0  0
    4.5413  -10.4131   15.5704 C   0  0  0  0  0  0  0  0  0  0  0  0
    4.1294  -10.7839   17.0240 C   0  0  0  0  0  0  0  0  0  0  0  0
    3.2592  -12.2751   17.7784 C   0  0  0  0  0  0  0  0  0  0  0  0
    1.8835  -13.7038   18.1941 N   0  0  0  0  0  0  0  0  0  0  0  0
    0.0507  -13.6840   18.1498 C   0  0  0  0  0  0  0  0  0  0  0  0
   -0.7171  -12.8240   17.7508 O   0  0  0  0  0  0  0  0  0  0  0  0
   -1.0411  -15.2345   19.0877 C   0  0  0  0  0  0  0  0  0  0  0  0
   -0.2710  -16.5054   20.1532 C   0  0  0  0  0  0  0  0  0  0  0  0
   -0.9500  -17.6315   19.8498 C   0  0  0  0  0  0  0  0  0  0  0  0
   -2.2597  -17.8302   19.9907 N   0  0  0  0  0  0  0  0  0  0  0  0
   -3.1462  -18.8621   19.7961 C   0  0  0  0  0  0  0  0  0  0  0  0
   -4.2865  -18.3566   20.3410 C   0  0  0  0  0  0  0  0  0  0  0  0
   -3.9854  -17.0808   20.7421 N   0  0  0  0  0  0  0  0  0  0  0  0
   -2.9211  -16.6826   20.0222 C   0  0  0  0  0  0  0  0  0  0  0  0
   -2.3125  -15.4826   19.4645 N   0  0  0  0  0  0  0  0  0  0  0  0
    4.1990  -13.1136   18.6400 C   0  0  0  0  0  0  0  0  0  0  0  0
    5.0217  -12.7642   19.4813 O   0  0  0  0  0  0  0  0  0  0  0  0
    4.0307  -14.4531   18.2446 O   0  0  0  0  0  0  0  0  0  0  0  0
    4.3599   -9.1705   14.9677 C   0  0  0  0  0  0  0  0  0  0  0  0
    3.9273   -8.6675   12.0858 H   0  0  0  0  0  0  0  0  0  0  0  0
    4.6516   -7.3408   13.0410 H   0  0  0  0  0  0  0  0  0  0  0  0
    5.6944   -8.3996   12.0217 H   0  0  0  0  0  0  0  0  0  0  0  0
    6.3301  -10.6929   12.9116 H   0  0  0  0  0  0  0  0  0  0  0  0
    5.1191  -10.6829   17.5106 H   0  0  0  0  0  0  0  0  0  0  0  0
    3.5522   -9.8989   17.3422 H   0  0  0  0  0  0  0  0  0  0  0  0
    2.9705  -11.9014   16.7605 H   0  0  0  0  0  0  0  0  0  0  0  0
    2.2267  -14.5498   18.6714 H   0  0  0  0  0  0  0  0  0  0  0  0
   -0.2750  -16.2441   21.1938 H   0  0  0  0  0  0  0  0  0  0  0  0
   -0.8485  -18.0205   18.8298 H   0  0  0  0  0  0  0  0  0  0  0  0
   -2.8830  -19.8313   19.4010 H   0  0  0  0  0  0  0  0  0  0  0  0
   -5.2401  -18.8270   20.5395 H   0  0  0  0  0  0  0  0  0  0  0  0
    3.3721  -14.4206   17.5210 H   0  0  0  0  0  0  0  0  0  0  0  0
    3.8144   -8.2932   15.2864 H   0  0  0  0  0  0  0  0  0  0  0  0
  1  2  1  0
  2  3  1  0
  3  4  2  0
  4  5  1  0
  5  6  1  0
  6  7  1  0
  7  8  1  0
  8  9  1  0
  9 10  2  0
  9 11  1  0
 11 12  1  0
 12 13  2  0
 13 14  1  0
 14 15  1  0
 15 16  2  0
 16 17  1  0
 17 18  2  0
 18 19  1  0
  7 20  1  0
 20 21  2  0
 20 22  1  0
  5 23  2  0
 23  2  1  0
 19 11  2  0
 18 14  1  0
  1 24  1  0
  1 25  1  0
  1 26  1  0
  3 27  1  0
  6 28  1  0
  6 29  1  0
  7 30  1  0
  8 31  1  0
 12 32  1  0
 13 33  1  0
 15 34  1  0
 16 35  1  0
 22 36  1  0
 23 37  1  0
M  END
>  <Energy>  (966) 
635.86067029466085

>  <compound_id>  (966) 
8692

>  <target_id>  (966) 
1

>  <reference_id>  (966) 
80

>  <inspiration_ids>  (966) 
[80, 107]

>  <energy_score>  (966) 
544.039518762003

>  <distance_score>  (966) 
14.606858947753516

>  <path>  (966) 
/opt/xchem-fragalysis-2/maxwin/BulkDock/SCRATCH/511020/C8692-P80/C8692-P80.minimised.mol

>  <scratch_subdir>  (966) 
/opt/xchem-fragalysis-2/maxwin/BulkDock/SCRATCH/511020/C8692-P80

>  <fragmenstein_runtime>  (966) 
27.60944366455078

>  <fragmenstein_outcome>  (966) 
too moved

>  <fragmenstein_mode>  (966) 
expansion

>  <fragmenstein_error>  (966) 


$$$$
C8692-P107
     RDKit          3D

 37 39  0  0  0  0  0  0  0  0999 V2000
    8.7032  -10.6423   25.7003 C   0  0  0  0  0  0  0  0  0  0  0  0
    8.1163  -11.9382   25.9151 N   0  0  0  0  0  0  0  0  0  0  0  0
    8.5944  -13.1216   25.4478 C   0  0  0  0  0  0  0  0  0  0  0  0
    7.8165  -14.1271   25.8070 N   0  0  0  0  0  0  0  0  0  0  0  0
    6.7798  -13.5887   26.5437 C   0  0  0  0  0  0  0  0  0  0  0  0
    5.5163  -14.3744   26.9388 C   0  0  0  0  0  0  0  0  0  0  0  0
    5.4859  -15.7112   27.7627 C   0  0  0  0  0  0  0  0  0  0  0  0
    4.0757  -16.3277   27.9927 N   0  0  0  0  0  0  0  0  0  0  0  0
    3.3418  -16.6086   29.2259 C   0  0  0  0  0  0  0  0  0  0  0  0
    3.6109  -16.3608   30.3672 O   0  0  0  0  0  0  0  0  0  0  0  0
    1.9394  -17.4062   29.0679 C   0  0  0  0  0  0  0  0  0  0  0  0
    1.9987  -18.8491   28.6219 C   0  0  0  0  0  0  0  0  0  0  0  0
    0.8553  -19.5608   28.6991 C   0  0  0  0  0  0  0  0  0  0  0  0
   -0.3112  -18.9528   29.1450 N   0  0  0  0  0  0  0  0  0  0  0  0
   -1.5715  -19.4704   29.3331 C   0  0  0  0  0  0  0  0  0  0  0  0
   -2.3330  -18.4143   29.7725 C   0  0  0  0  0  0  0  0  0  0  0  0
   -1.5731  -17.2682   29.8389 N   0  0  0  0  0  0  0  0  0  0  0  0
   -0.3396  -17.6033   29.4902 C   0  0  0  0  0  0  0  0  0  0  0  0
    0.8145  -16.8358   29.4519 N   0  0  0  0  0  0  0  0  0  0  0  0
    6.2398  -16.7805   26.9974 C   0  0  0  0  0  0  0  0  0  0  0  0
    5.7469  -17.5027   26.1378 O   0  0  0  0  0  0  0  0  0  0  0  0
    7.5274  -16.9036   27.3611 O   0  0  0  0  0  0  0  0  0  0  0  0
    6.9932  -12.2167   26.6448 C   0  0  0  0  0  0  0  0  0  0  0  0
    7.9241   -9.8788   25.7712 H   0  0  0  0  0  0  0  0  0  0  0  0
    9.4644  -10.4797   26.4672 H   0  0  0  0  0  0  0  0  0  0  0  0
    9.1531  -10.6144   24.7045 H   0  0  0  0  0  0  0  0  0  0  0  0
    9.4960  -13.2079   24.8551 H   0  0  0  0  0  0  0  0  0  0  0  0
    4.9603  -14.5518   26.0100 H   0  0  0  0  0  0  0  0  0  0  0  0
    4.9269  -13.6975   27.5634 H   0  0  0  0  0  0  0  0  0  0  0  0
    5.9282  -15.5760   28.7551 H   0  0  0  0  0  0  0  0  0  0  0  0
    3.5903  -16.7548   27.2140 H   0  0  0  0  0  0  0  0  0  0  0  0
    2.9473  -19.2652   28.3098 H   0  0  0  0  0  0  0  0  0  0  0  0
    0.7982  -20.6099   28.4370 H   0  0  0  0  0  0  0  0  0  0  0  0
   -1.8039  -20.5098   29.1550 H   0  0  0  0  0  0  0  0  0  0  0  0
   -3.3821  -18.4109   30.0436 H   0  0  0  0  0  0  0  0  0  0  0  0
    7.9255  -17.5380   26.7303 H   0  0  0  0  0  0  0  0  0  0  0  0
    6.4176  -11.4397   27.1260 H   0  0  0  0  0  0  0  0  0  0  0  0
  1  2  1  0
  2  3  1  0
  3  4  2  0
  4  5  1  0
  5  6  1  0
  6  7  1  0
  7  8  1  0
  8  9  1  0
  9 10  2  0
  9 11  1  0
 11 12  1  0
 12 13  2  0
 13 14  1  0
 14 15  1  0
 15 16  2  0
 16 17  1  0
 17 18  2  0
 18 19  1  0
  7 20  1  0
 20 21  2  0
 20 22  1  0
  5 23  2  0
 23  2  1  0
 19 11  2  0
 18 14  1  0
  1 24  1  0
  1 25  1  0
  1 26  1  0
  3 27  1  0
  6 28  1  0
  6 29  1  0
  7 30  1  0
  8 31  1  0
 12 32  1  0
 13 33  1  0
 15 34  1  0
 16 35  1  0
 22 36  1  0
 23 37  1  0
M  END
>  <Energy>  (967) 
85.843153729451856

>  <compound_id>  (967) 
8692

>  <target_id>  (967) 
1

>  <reference_id>  (967) 
107

>  <inspiration_ids>  (967) 
[80, 107]

>  <energy_score>  (967) 
-5.977997803204801

>  <distance_score>  (967) 
14.44360484166579

>  <path>  (967) 
/opt/xchem-fragalysis-2/maxwin/BulkDock/SCRATCH/511020/C8692-P107/C8692-P107.minimised.mol

>  <scratch_subdir>  (967) 
/opt/xchem-fragalysis-2/maxwin/BulkDock/SCRATCH/511020/C8692-P107

>  <fragmenstein_runtime>  (967) 
50.37700414657593

>  <fragmenstein_outcome>  (967) 
too moved

>  <fragmenstein_mode>  (967) 
expansion

>  <fragmenstein_error>  (967) 


$$$$
C8679-P80
     RDKit          3D

 31 33  0  0  0  0  0  0  0  0999 V2000
   -1.7745  -14.0960   27.0699 O   0  0  0  0  0  0  0  0  0  0  0  0
   -1.4896  -15.2360   26.8319 C   0  0  0  0  0  0  0  0  0  0  0  0
   -0.3094  -15.8067   26.2430 N   0  0  0  0  0  0  0  0  0  0  0  0
    0.8822  -15.2265   25.8592 C   0  0  0  0  0  0  0  0  0  0  0  0
    1.6958  -15.7831   24.9813 N   0  0  0  0  0  0  0  0  0  0  0  0
    2.7753  -14.9506   24.8440 C   0  0  0  0  0  0  0  0  0  0  0  0
    2.6757  -13.9002   25.7151 C   0  0  0  0  0  0  0  0  0  0  0  0
    1.4639  -14.0590   26.3473 N   0  0  0  0  0  0  0  0  0  0  0  0
    0.9684  -13.2754   27.4633 C   0  0  0  0  0  0  0  0  0  0  0  0
    1.9784  -12.4102   28.1866 C   0  0  0  0  0  0  0  0  0  0  0  0
    2.1778  -11.2507   27.5036 F   0  0  0  0  0  0  0  0  0  0  0  0
    1.4665  -12.0355   29.3906 F   0  0  0  0  0  0  0  0  0  0  0  0
   -2.5565  -16.2589   27.2788 C   0  0  0  0  0  0  0  0  0  0  0  0
   -3.7644  -16.4337   26.3959 C   0  0  0  0  0  0  0  0  0  0  0  0
   -4.8171  -17.0463   26.9668 C   0  0  0  0  0  0  0  0  0  0  0  0
   -4.7089  -17.4934   28.2752 N   0  0  0  0  0  0  0  0  0  0  0  0
   -5.6604  -17.9861   29.1206 C   0  0  0  0  0  0  0  0  0  0  0  0
   -4.9914  -18.2474   30.2948 C   0  0  0  0  0  0  0  0  0  0  0  0
   -3.6676  -17.9215   30.1886 N   0  0  0  0  0  0  0  0  0  0  0  0
   -3.5125  -17.4220   28.9825 C   0  0  0  0  0  0  0  0  0  0  0  0
   -2.4130  -16.7992   28.4558 N   0  0  0  0  0  0  0  0  0  0  0  0
   -0.4500  -16.8009   26.1179 H   0  0  0  0  0  0  0  0  0  0  0  0
    3.5793  -15.1967   24.1670 H   0  0  0  0  0  0  0  0  0  0  0  0
    3.3611  -13.1066   25.9500 H   0  0  0  0  0  0  0  0  0  0  0  0
    0.5538  -13.9797   28.1917 H   0  0  0  0  0  0  0  0  0  0  0  0
    0.1680  -12.6380   27.0807 H   0  0  0  0  0  0  0  0  0  0  0  0
    2.9415  -12.8975   28.3614 H   0  0  0  0  0  0  0  0  0  0  0  0
   -3.7658  -16.0104   25.4012 H   0  0  0  0  0  0  0  0  0  0  0  0
   -5.7697  -17.1758   26.4710 H   0  0  0  0  0  0  0  0  0  0  0  0
   -6.6945  -18.0995   28.8378 H   0  0  0  0  0  0  0  0  0  0  0  0
   -5.3782  -18.6544   31.2185 H   0  0  0  0  0  0  0  0  0  0  0  0
  1  2  2  0
  2  3  1  0
  3  4  1  0
  4  5  2  0
  5  6  1  0
  6  7  2  0
  7  8  1  0
  8  9  1  0
  9 10  1  0
 10 11  1  0
 10 12  1  0
  2 13  1  0
 13 14  1  0
 14 15  2  0
 15 16  1  0
 16 17  1  0
 17 18  2  0
 18 19  1  0
 19 20  2  0
 20 21  1  0
  8  4  1  0
 21 13  2  0
 20 16  1  0
  3 22  1  0
  6 23  1  0
  7 24  1  0
  9 25  1  0
  9 26  1  0
 10 27  1  0
 14 28  1  0
 15 29  1  0
 17 30  1  0
 18 31  1  0
M  END
>  <Energy>  (968) 
45.520690949686767

>  <compound_id>  (968) 
8679

>  <target_id>  (968) 
1

>  <reference_id>  (968) 
80

>  <inspiration_ids>  (968) 
[80, 107]

>  <energy_score>  (968) 
-31.11132811969952

>  <distance_score>  (968) 
14.225216298353038

>  <path>  (968) 
/opt/xchem-fragalysis-2/maxwin/BulkDock/SCRATCH/511020/C8679-P80/C8679-P80.minimised.mol

>  <scratch_subdir>  (968) 
/opt/xchem-fragalysis-2/maxwin/BulkDock/SCRATCH/511020/C8679-P80

>  <fragmenstein_runtime>  (968) 
28.79165267944336

>  <fragmenstein_outcome>  (968) 
too moved

>  <fragmenstein_mode>  (968) 
expansion

>  <fragmenstein_error>  (968) 


$$$$
C8679-P107
     RDKit          3D

 31 33  0  0  0  0  0  0  0  0999 V2000
   -1.2596  -18.1157   24.9571 O   0  0  0  0  0  0  0  0  0  0  0  0
   -1.4384  -17.2795   25.7965 C   0  0  0  0  0  0  0  0  0  0  0  0
   -0.6544  -16.1172   26.1569 N   0  0  0  0  0  0  0  0  0  0  0  0
    0.4852  -15.5762   25.5805 C   0  0  0  0  0  0  0  0  0  0  0  0
    1.0330  -15.9420   24.4375 N   0  0  0  0  0  0  0  0  0  0  0  0
    2.1735  -15.1976   24.2603 C   0  0  0  0  0  0  0  0  0  0  0  0
    2.3495  -14.3384   25.3102 C   0  0  0  0  0  0  0  0  0  0  0  0
    1.2740  -14.5742   26.1468 N   0  0  0  0  0  0  0  0  0  0  0  0
    1.2302  -14.0911   27.5142 C   0  0  0  0  0  0  0  0  0  0  0  0
   -0.0582  -13.4477   27.9862 C   0  0  0  0  0  0  0  0  0  0  0  0
   -1.0900  -14.3272   27.9344 F   0  0  0  0  0  0  0  0  0  0  0  0
   -0.3965  -12.3700   27.2470 F   0  0  0  0  0  0  0  0  0  0  0  0
   -2.6620  -17.5405   26.7216 C   0  0  0  0  0  0  0  0  0  0  0  0
   -2.4853  -18.6693   27.7109 C   0  0  0  0  0  0  0  0  0  0  0  0
   -3.5079  -18.8836   28.5550 C   0  0  0  0  0  0  0  0  0  0  0  0
   -4.6510  -18.1113   28.4346 N   0  0  0  0  0  0  0  0  0  0  0  0
   -5.7709  -18.0616   29.2164 C   0  0  0  0  0  0  0  0  0  0  0  0
   -6.6315  -17.2163   28.5660 C   0  0  0  0  0  0  0  0  0  0  0  0
   -6.0348  -16.6806   27.4534 N   0  0  0  0  0  0  0  0  0  0  0  0
   -4.8050  -17.1644   27.4231 C   0  0  0  0  0  0  0  0  0  0  0  0
   -3.7617  -16.8460   26.5834 N   0  0  0  0  0  0  0  0  0  0  0  0
   -1.0671  -15.6793   26.9731 H   0  0  0  0  0  0  0  0  0  0  0  0
    2.7948  -15.3410   23.3880 H   0  0  0  0  0  0  0  0  0  0  0  0
    3.1276  -13.6287   25.5438 H   0  0  0  0  0  0  0  0  0  0  0  0
    2.0442  -13.3656   27.6271 H   0  0  0  0  0  0  0  0  0  0  0  0
    1.4603  -14.9587   28.1439 H   0  0  0  0  0  0  0  0  0  0  0  0
    0.0412  -13.1203   29.0251 H   0  0  0  0  0  0  0  0  0  0  0  0
   -1.5609  -19.2316   27.7133 H   0  0  0  0  0  0  0  0  0  0  0  0
   -3.4953  -19.6353   29.3349 H   0  0  0  0  0  0  0  0  0  0  0  0
   -5.8510  -18.6171   30.1389 H   0  0  0  0  0  0  0  0  0  0  0  0
   -7.6351  -16.9345   28.8495 H   0  0  0  0  0  0  0  0  0  0  0  0
  1  2  2  0
  2  3  1  0
  3  4  1  0
  4  5  2  0
  5  6  1  0
  6  7  2  0
  7  8  1  0
  8  9  1  0
  9 10  1  0
 10 11  1  0
 10 12  1  0
  2 13  1  0
 13 14  1  0
 14 15  2  0
 15 16  1  0
 16 17  1  0
 17 18  2  0
 18 19  1  0
 19 20  2  0
 20 21  1  0
  8  4  1  0
 21 13  2  0
 20 16  1  0
  3 22  1  0
  6 23  1  0
  7 24  1  0
  9 25  1  0
  9 26  1  0
 10 27  1  0
 14 28  1  0
 15 29  1  0
 17 30  1  0
 18 31  1  0
M  END
>  <Energy>  (969) 
48.329813078419065

>  <compound_id>  (969) 
8679

>  <target_id>  (969) 
1

>  <reference_id>  (969) 
107

>  <inspiration_ids>  (969) 
[80, 107]

>  <energy_score>  (969) 
-28.302205990963614

>  <distance_score>  (969) 
14.041108497775008

>  <path>  (969) 
/opt/xchem-fragalysis-2/maxwin/BulkDock/SCRATCH/511020/C8679-P107/C8679-P107.minimised.mol

>  <scratch_subdir>  (969) 
/opt/xchem-fragalysis-2/maxwin/BulkDock/SCRATCH/511020/C8679-P107

>  <fragmenstein_runtime>  (969) 
22.669423580169678

>  <fragmenstein_outcome>  (969) 
too moved

>  <fragmenstein_mode>  (969) 
expansion

>  <fragmenstein_error>  (969) 


$$$$
C8700-P80
     RDKit          3D

 37 39  0  0  0  0  0  0  0  0999 V2000
   -0.1247  -20.2798   21.7829 C   0  0  0  0  0  0  0  0  0  0  0  0
   -1.1757  -21.1325   21.1484 N   0  0  0  0  0  0  0  0  0  0  0  0
   -0.1677  -21.1220   19.9866 C   0  0  0  0  0  0  0  0  0  0  0  0
    0.0738  -19.9967   18.9753 C   0  0  0  0  0  0  0  0  0  0  0  0
    1.2644  -19.7482   18.4465 N   0  0  0  0  0  0  0  0  0  0  0  0
    1.0526  -19.1326   17.2470 C   0  0  0  0  0  0  0  0  0  0  0  0
   -0.2917  -18.9639   17.0500 C   0  0  0  0  0  0  0  0  0  0  0  0
   -0.8879  -19.3628   18.2218 N   0  0  0  0  0  0  0  0  0  0  0  0
   -2.3135  -19.3650   18.4788 C   0  0  0  0  0  0  0  0  0  0  0  0
   -2.7307  -18.3198   19.4933 C   0  0  0  0  0  0  0  0  0  0  0  0
   -4.0170  -18.5684   19.8657 F   0  0  0  0  0  0  0  0  0  0  0  0
   -2.7441  -17.0923   18.9094 F   0  0  0  0  0  0  0  0  0  0  0  0
   -1.5632  -22.1932   22.0446 C   0  0  0  0  0  0  0  0  0  0  0  0
   -1.1298  -23.3136   22.1663 O   0  0  0  0  0  0  0  0  0  0  0  0
   -2.6452  -21.9194   23.1318 C   0  0  0  0  0  0  0  0  0  0  0  0
   -3.6371  -23.0571   23.2928 C   0  0  0  0  0  0  0  0  0  0  0  0
   -4.2368  -23.1471   24.4879 C   0  0  0  0  0  0  0  0  0  0  0  0
   -4.0107  -22.1588   25.4284 N   0  0  0  0  0  0  0  0  0  0  0  0
   -4.4007  -22.0754   26.7405 C   0  0  0  0  0  0  0  0  0  0  0  0
   -3.9867  -20.8353   27.1610 C   0  0  0  0  0  0  0  0  0  0  0  0
   -3.3488  -20.1688   26.1459 N   0  0  0  0  0  0  0  0  0  0  0  0
   -3.2831  -21.0079   25.1270 C   0  0  0  0  0  0  0  0  0  0  0  0
   -2.5585  -20.9096   23.9592 N   0  0  0  0  0  0  0  0  0  0  0  0
   -0.5236  -19.9997   22.7665 H   0  0  0  0  0  0  0  0  0  0  0  0
    0.8051  -20.8123   22.0354 H   0  0  0  0  0  0  0  0  0  0  0  0
    0.0127  -19.3094   21.2918 H   0  0  0  0  0  0  0  0  0  0  0  0
    0.7785  -21.6334   20.2419 H   0  0  0  0  0  0  0  0  0  0  0  0
   -0.6212  -21.9021   19.3497 H   0  0  0  0  0  0  0  0  0  0  0  0
    1.8638  -18.8857   16.5767 H   0  0  0  0  0  0  0  0  0  0  0  0
   -0.8532  -18.5716   16.2130 H   0  0  0  0  0  0  0  0  0  0  0  0
   -2.5984  -20.3680   18.8114 H   0  0  0  0  0  0  0  0  0  0  0  0
   -2.8272  -19.1867   17.5273 H   0  0  0  0  0  0  0  0  0  0  0  0
   -2.1015  -18.2896   20.3849 H   0  0  0  0  0  0  0  0  0  0  0  0
   -3.7305  -23.7952   22.5077 H   0  0  0  0  0  0  0  0  0  0  0  0
   -4.8972  -23.9581   24.7518 H   0  0  0  0  0  0  0  0  0  0  0  0
   -4.9383  -22.8688   27.2297 H   0  0  0  0  0  0  0  0  0  0  0  0
   -4.1033  -20.3778   28.1355 H   0  0  0  0  0  0  0  0  0  0  0  0
  1  2  1  0
  2  3  1  0
  3  4  1  0
  4  5  2  0
  5  6  1  0
  6  7  2  0
  7  8  1  0
  8  9  1  0
  9 10  1  0
 10 11  1  0
 10 12  1  0
  2 13  1  0
 13 14  2  0
 13 15  1  0
 15 16  1  0
 16 17  2  0
 17 18  1  0
 18 19  1  0
 19 20  2  0
 20 21  1  0
 21 22  2  0
 22 23  1  0
  8  4  1  0
 23 15  2  0
 22 18  1  0
  1 24  1  0
  1 25  1  0
  1 26  1  0
  3 27  1  0
  3 28  1  0
  6 29  1  0
  7 30  1  0
  9 31  1  0
  9 32  1  0
 10 33  1  0
 16 34  1  0
 17 35  1  0
 19 36  1  0
 20 37  1  0
M  END
>  <Energy>  (970) 
148.36818318631546

>  <compound_id>  (970) 
8700

>  <target_id>  (970) 
1

>  <reference_id>  (970) 
80

>  <inspiration_ids>  (970) 
[80, 107]

>  <energy_score>  (970) 
44.6199736223673

>  <distance_score>  (970) 
15.003428157213882

>  <path>  (970) 
/opt/xchem-fragalysis-2/maxwin/BulkDock/SCRATCH/511020/C8700-P80/C8700-P80.minimised.mol

>  <scratch_subdir>  (970) 
/opt/xchem-fragalysis-2/maxwin/BulkDock/SCRATCH/511020/C8700-P80

>  <fragmenstein_runtime>  (970) 
39.119834184646606

>  <fragmenstein_outcome>  (970) 
too moved

>  <fragmenstein_mode>  (970) 
expansion

>  <fragmenstein_error>  (970) 


$$$$
C8700-P107
     RDKit          3D

 37 39  0  0  0  0  0  0  0  0999 V2000
   -1.1774  -17.3452   19.8258 C   0  0  0  0  0  0  0  0  0  0  0  0
   -0.2021  -17.5717   20.9304 N   0  0  0  0  0  0  0  0  0  0  0  0
    0.7815  -16.2532   19.9898 C   0  0  0  0  0  0  0  0  0  0  0  0
    2.3522  -14.8809   19.6472 C   0  0  0  0  0  0  0  0  0  0  0  0
    2.6672  -14.1417   20.7162 N   0  0  0  0  0  0  0  0  0  0  0  0
    3.7990  -13.1056   20.8119 C   0  0  0  0  0  0  0  0  0  0  0  0
    4.5945  -13.2354   19.7295 C   0  0  0  0  0  0  0  0  0  0  0  0
    3.5216  -13.9954   18.5769 N   0  0  0  0  0  0  0  0  0  0  0  0
    3.6170  -12.5049   17.9368 C   0  0  0  0  0  0  0  0  0  0  0  0
    3.4945  -11.5250   16.6754 C   0  0  0  0  0  0  0  0  0  0  0  0
    3.3812  -10.2395   17.0500 F   0  0  0  0  0  0  0  0  0  0  0  0
    4.1414  -11.5932   15.5055 F   0  0  0  0  0  0  0  0  0  0  0  0
    0.0307  -19.0288   21.0954 C   0  0  0  0  0  0  0  0  0  0  0  0
    0.8565  -19.7541   20.5929 O   0  0  0  0  0  0  0  0  0  0  0  0
   -1.0260  -19.6869   22.2001 C   0  0  0  0  0  0  0  0  0  0  0  0
   -0.8792  -21.1758   22.4483 C   0  0  0  0  0  0  0  0  0  0  0  0
   -1.6462  -21.7237   23.4109 C   0  0  0  0  0  0  0  0  0  0  0  0
   -2.5157  -20.9213   24.1333 N   0  0  0  0  0  0  0  0  0  0  0  0
   -3.3005  -21.2161   25.2237 C   0  0  0  0  0  0  0  0  0  0  0  0
   -3.8485  -20.0147   25.6018 C   0  0  0  0  0  0  0  0  0  0  0  0
   -3.5003  -19.0199   24.7202 N   0  0  0  0  0  0  0  0  0  0  0  0
   -2.6632  -19.5667   23.8485 C   0  0  0  0  0  0  0  0  0  0  0  0
   -1.9330  -18.9731   22.8394 N   0  0  0  0  0  0  0  0  0  0  0  0
   -1.7385  -16.4051   19.7281 H   0  0  0  0  0  0  0  0  0  0  0  0
   -2.0112  -18.0245   20.0760 H   0  0  0  0  0  0  0  0  0  0  0  0
   -0.8281  -17.8326   18.9090 H   0  0  0  0  0  0  0  0  0  0  0  0
    0.8196  -15.8389   20.9679 H   0  0  0  0  0  0  0  0  0  0  0  0
   -0.1414  -15.7955   19.8662 H   0  0  0  0  0  0  0  0  0  0  0  0
    3.8188  -12.5207   21.7137 H   0  0  0  0  0  0  0  0  0  0  0  0
    5.5715  -12.9327   19.4177 H   0  0  0  0  0  0  0  0  0  0  0  0
    2.8979  -11.9497   18.3695 H   0  0  0  0  0  0  0  0  0  0  0  0
    4.5279  -12.1106   18.2802 H   0  0  0  0  0  0  0  0  0  0  0  0
    2.5833  -11.8071   16.3658 H   0  0  0  0  0  0  0  0  0  0  0  0
   -0.1467  -21.7212   21.8674 H   0  0  0  0  0  0  0  0  0  0  0  0
   -1.5880  -22.7697   23.6808 H   0  0  0  0  0  0  0  0  0  0  0  0
   -3.3524  -22.2091   25.6444 H   0  0  0  0  0  0  0  0  0  0  0  0
   -4.4861  -19.8085   26.4510 H   0  0  0  0  0  0  0  0  0  0  0  0
  1  2  1  0
  2  3  1  0
  3  4  1  0
  4  5  2  0
  5  6  1  0
  6  7  2  0
  7  8  1  0
  8  9  1  0
  9 10  1  0
 10 11  1  0
 10 12  1  0
  2 13  1  0
 13 14  2  0
 13 15  1  0
 15 16  1  0
 16 17  2  0
 17 18  1  0
 18 19  1  0
 19 20  2  0
 20 21  1  0
 21 22  2  0
 22 23  1  0
  8  4  1  0
 23 15  2  0
 22 18  1  0
  1 24  1  0
  1 25  1  0
  1 26  1  0
  3 27  1  0
  3 28  1  0
  6 29  1  0
  7 30  1  0
  9 31  1  0
  9 32  1  0
 10 33  1  0
 16 34  1  0
 17 35  1  0
 19 36  1  0
 20 37  1  0
M  END
>  <Energy>  (971) 
660.5156009570411

>  <compound_id>  (971) 
8700

>  <target_id>  (971) 
1

>  <reference_id>  (971) 
107

>  <inspiration_ids>  (971) 
[80, 107]

>  <energy_score>  (971) 
556.7673913931129

>  <distance_score>  (971) 
13.491436838401503

>  <path>  (971) 
/opt/xchem-fragalysis-2/maxwin/BulkDock/SCRATCH/511020/C8700-P107/C8700-P107.minimised.mol

>  <scratch_subdir>  (971) 
/opt/xchem-fragalysis-2/maxwin/BulkDock/SCRATCH/511020/C8700-P107

>  <fragmenstein_runtime>  (971) 
32.92026948928833

>  <fragmenstein_outcome>  (971) 
too moved

>  <fragmenstein_mode>  (971) 
expansion

>  <fragmenstein_error>  (971) 


$$$$
C8701-P80
     RDKit          3D

 39 41  0  0  0  0  0  0  0  0999 V2000
    2.0399   -8.2689   17.1083 C   0  0  0  0  0  0  0  0  0  0  0  0
    3.0856   -9.8963   17.0038 C   0  0  0  0  0  0  0  0  0  0  0  0
    4.2430   -9.9189   17.4146 N   0  0  0  0  0  0  0  0  0  0  0  0
    3.9076   -9.0753   18.2716 C   0  0  0  0  0  0  0  0  0  0  0  0
    2.5822   -9.6040   18.5265 C   0  0  0  0  0  0  0  0  0  0  0  0
    2.8867  -11.0110   17.6811 N   0  0  0  0  0  0  0  0  0  0  0  0
    3.5473  -12.6596   18.1912 C   0  0  0  0  0  0  0  0  0  0  0  0
    2.8920  -14.5661   18.1556 C   0  0  0  0  0  0  0  0  0  0  0  0
    2.9386  -15.7438   17.0193 C   0  0  0  0  0  0  0  0  0  0  0  0
    2.3613  -15.7479   19.3810 C   0  0  0  0  0  0  0  0  0  0  0  0
    1.1765  -16.6477   19.7411 O   0  0  0  0  0  0  0  0  0  0  0  0
    1.1854  -17.9265   20.2420 C   0  0  0  0  0  0  0  0  0  0  0  0
    2.1419  -18.6842   20.1295 O   0  0  0  0  0  0  0  0  0  0  0  0
   -0.1549  -18.4138   21.0585 C   0  0  0  0  0  0  0  0  0  0  0  0
   -1.3514  -18.8169   20.2227 C   0  0  0  0  0  0  0  0  0  0  0  0
   -2.4198  -19.3219   20.8740 C   0  0  0  0  0  0  0  0  0  0  0  0
   -2.4034  -19.4215   22.2590 N   0  0  0  0  0  0  0  0  0  0  0  0
   -3.3747  -19.8576   23.1340 C   0  0  0  0  0  0  0  0  0  0  0  0
   -2.8376  -19.6821   24.3853 C   0  0  0  0  0  0  0  0  0  0  0  0
   -1.5666  -19.1622   24.2946 N   0  0  0  0  0  0  0  0  0  0  0  0
   -1.2915  -19.0301   23.0023 C   0  0  0  0  0  0  0  0  0  0  0  0
   -0.1450  -18.5611   22.3747 N   0  0  0  0  0  0  0  0  0  0  0  0
    2.3487   -7.7623   18.0086 H   0  0  0  0  0  0  0  0  0  0  0  0
    2.4965   -7.9226   16.2085 H   0  0  0  0  0  0  0  0  0  0  0  0
    0.9506   -8.4200   17.0951 H   0  0  0  0  0  0  0  0  0  0  0  0
    4.7690   -8.4454   18.5358 H   0  0  0  0  0  0  0  0  0  0  0  0
    1.8486   -9.3804   19.2808 H   0  0  0  0  0  0  0  0  0  0  0  0
    4.1257  -12.5889   19.1292 H   0  0  0  0  0  0  0  0  0  0  0  0
    4.3083  -12.4423   17.5230 H   0  0  0  0  0  0  0  0  0  0  0  0
    3.9691  -14.7339   18.3294 H   0  0  0  0  0  0  0  0  0  0  0  0
    2.3074  -15.5575   16.1448 H   0  0  0  0  0  0  0  0  0  0  0  0
    2.6410  -16.7286   17.3965 H   0  0  0  0  0  0  0  0  0  0  0  0
    3.9600  -16.0439   16.7607 H   0  0  0  0  0  0  0  0  0  0  0  0
    2.3116  -15.0631   20.1997 H   0  0  0  0  0  0  0  0  0  0  0  0
    3.1302  -16.5179   19.3196 H   0  0  0  0  0  0  0  0  0  0  0  0
   -1.2949  -18.6996   19.1495 H   0  0  0  0  0  0  0  0  0  0  0  0
   -3.3188  -19.6423   20.3644 H   0  0  0  0  0  0  0  0  0  0  0  0
   -4.3283  -20.2309   22.7926 H   0  0  0  0  0  0  0  0  0  0  0  0
   -3.2859  -19.8992   25.3460 H   0  0  0  0  0  0  0  0  0  0  0  0
  1  2  1  0
  2  3  2  0
  3  4  1  0
  4  5  2  0
  5  6  1  0
  6  7  1  0
  7  8  1  0
  8  9  1  0
  8 10  1  0
 10 11  1  0
 11 12  1  0
 12 13  2  0
 12 14  1  0
 14 15  1  0
 15 16  2  0
 16 17  1  0
 17 18  1  0
 18 19  2  0
 19 20  1  0
 20 21  2  0
 21 22  1  0
  6  2  1  0
 22 14  2  0
 21 17  1  0
  1 23  1  0
  1 24  1  0
  1 25  1  0
  4 26  1  0
  5 27  1  0
  7 28  1  0
  7 29  1  0
  8 30  1  0
  9 31  1  0
  9 32  1  0
  9 33  1  0
 10 34  1  0
 10 35  1  0
 15 36  1  0
 16 37  1  0
 18 38  1  0
 19 39  1  0
M  END
>  <Energy>  (972) 
641.57948803321744

>  <compound_id>  (972) 
8701

>  <target_id>  (972) 
1

>  <reference_id>  (972) 
80

>  <inspiration_ids>  (972) 
[80, 107]

>  <energy_score>  (972) 
523.2960080028087

>  <distance_score>  (972) 
13.372179409950938

>  <path>  (972) 
/opt/xchem-fragalysis-2/maxwin/BulkDock/SCRATCH/511020/C8701-P80/C8701-P80.minimised.mol

>  <scratch_subdir>  (972) 
/opt/xchem-fragalysis-2/maxwin/BulkDock/SCRATCH/511020/C8701-P80

>  <fragmenstein_runtime>  (972) 
20.03386926651001

>  <fragmenstein_outcome>  (972) 
too moved

>  <fragmenstein_mode>  (972) 
expansion

>  <fragmenstein_error>  (972) 


$$$$
C8701-P107
     RDKit          3D

 39 41  0  0  0  0  0  0  0  0999 V2000
    3.8864   -5.7728   15.3395 C   0  0  0  0  0  0  0  0  0  0  0  0
    4.4799   -6.4107   16.6438 C   0  0  0  0  0  0  0  0  0  0  0  0
    5.7384   -6.1157   16.7753 N   0  0  0  0  0  0  0  0  0  0  0  0
    5.9505   -6.4154   17.9957 C   0  0  0  0  0  0  0  0  0  0  0  0
    5.0930   -7.3644   18.4060 C   0  0  0  0  0  0  0  0  0  0  0  0
    3.7688   -7.4257   17.9480 N   0  0  0  0  0  0  0  0  0  0  0  0
    2.2528   -8.5311   18.6568 C   0  0  0  0  0  0  0  0  0  0  0  0
    1.0607   -9.0612   20.3552 C   0  0  0  0  0  0  0  0  0  0  0  0
    0.6976   -7.9903   21.4678 C   0  0  0  0  0  0  0  0  0  0  0  0
    0.1929  -10.5285   21.5485 C   0  0  0  0  0  0  0  0  0  0  0  0
    0.3725  -12.1076   22.7496 O   0  0  0  0  0  0  0  0  0  0  0  0
   -0.1201  -13.8740   23.2875 C   0  0  0  0  0  0  0  0  0  0  0  0
   -0.0889  -14.7983   22.4936 O   0  0  0  0  0  0  0  0  0  0  0  0
   -0.5836  -14.5106   24.9639 C   0  0  0  0  0  0  0  0  0  0  0  0
   -0.1290  -15.9643   25.1211 C   0  0  0  0  0  0  0  0  0  0  0  0
   -0.8233  -16.7665   25.9497 C   0  0  0  0  0  0  0  0  0  0  0  0
   -1.8765  -16.2462   26.6802 N   0  0  0  0  0  0  0  0  0  0  0  0
   -2.7608  -16.8681   27.5297 C   0  0  0  0  0  0  0  0  0  0  0  0
   -3.6173  -15.8773   27.9420 C   0  0  0  0  0  0  0  0  0  0  0  0
   -3.2753  -14.6735   27.3663 N   0  0  0  0  0  0  0  0  0  0  0  0
   -2.2085  -14.8943   26.6112 C   0  0  0  0  0  0  0  0  0  0  0  0
   -1.5438  -14.0295   25.7518 N   0  0  0  0  0  0  0  0  0  0  0  0
    4.2386   -4.7327   15.3026 H   0  0  0  0  0  0  0  0  0  0  0  0
    2.8119   -5.6993   15.2212 H   0  0  0  0  0  0  0  0  0  0  0  0
    4.2723   -6.2816   14.4622 H   0  0  0  0  0  0  0  0  0  0  0  0
    6.8377   -6.2023   18.5199 H   0  0  0  0  0  0  0  0  0  0  0  0
    5.3281   -8.0414   19.1533 H   0  0  0  0  0  0  0  0  0  0  0  0
    2.1169   -7.5445   19.0519 H   0  0  0  0  0  0  0  0  0  0  0  0
    1.7092   -8.5973   17.7142 H   0  0  0  0  0  0  0  0  0  0  0  0
    0.1608   -8.6879   19.7965 H   0  0  0  0  0  0  0  0  0  0  0  0
   -0.3794   -8.0071   21.6339 H   0  0  0  0  0  0  0  0  0  0  0  0
    1.0988   -8.2258   22.4383 H   0  0  0  0  0  0  0  0  0  0  0  0
    1.0670   -7.0036   21.2402 H   0  0  0  0  0  0  0  0  0  0  0  0
   -0.2366   -9.9179   22.3417 H   0  0  0  0  0  0  0  0  0  0  0  0
   -0.7741  -10.7774   21.0584 H   0  0  0  0  0  0  0  0  0  0  0  0
    0.6756  -16.3162   24.4970 H   0  0  0  0  0  0  0  0  0  0  0  0
   -0.6020  -17.8196   26.0703 H   0  0  0  0  0  0  0  0  0  0  0  0
   -2.7046  -17.9230   27.7551 H   0  0  0  0  0  0  0  0  0  0  0  0
   -4.4589  -15.9577   28.6186 H   0  0  0  0  0  0  0  0  0  0  0  0
  1  2  1  0
  2  3  2  0
  3  4  1  0
  4  5  2  0
  5  6  1  0
  6  7  1  0
  7  8  1  0
  8  9  1  0
  8 10  1  0
 10 11  1  0
 11 12  1  0
 12 13  2  0
 12 14  1  0
 14 15  1  0
 15 16  2  0
 16 17  1  0
 17 18  1  0
 18 19  2  0
 19 20  1  0
 20 21  2  0
 21 22  1  0
  6  2  1  0
 22 14  2  0
 21 17  1  0
  1 23  1  0
  1 24  1  0
  1 25  1  0
  4 26  1  0
  5 27  1  0
  7 28  1  0
  7 29  1  0
  8 30  1  0
  9 31  1  0
  9 32  1  0
  9 33  1  0
 10 34  1  0
 10 35  1  0
 15 36  1  0
 16 37  1  0
 18 38  1  0
 19 39  1  0
M  END
>  <Energy>  (973) 
867.83870323272743

>  <compound_id>  (973) 
8701

>  <target_id>  (973) 
1

>  <reference_id>  (973) 
107

>  <inspiration_ids>  (973) 
[80, 107]

>  <energy_score>  (973) 
749.555223202331

>  <distance_score>  (973) 
12.159489703593485

>  <path>  (973) 
/opt/xchem-fragalysis-2/maxwin/BulkDock/SCRATCH/511020/C8701-P107/C8701-P107.minimised.mol

>  <scratch_subdir>  (973) 
/opt/xchem-fragalysis-2/maxwin/BulkDock/SCRATCH/511020/C8701-P107

>  <fragmenstein_runtime>  (973) 
22.64494299888611

>  <fragmenstein_outcome>  (973) 
too moved

>  <fragmenstein_mode>  (973) 
expansion

>  <fragmenstein_error>  (973) 


$$$$
C8698-P80
     RDKit          3D

 32 35  0  0  0  0  0  0  0  0999 V2000
   -5.0293  -13.1410   24.9901 O   0  0  0  0  0  0  0  0  0  0  0  0
   -6.0037  -12.4211   25.0496 C   0  0  0  0  0  0  0  0  0  0  0  0
   -7.2470  -13.2324   25.5206 C   0  0  0  0  0  0  0  0  0  0  0  0
   -7.4267  -14.5735   24.8335 C   0  0  0  0  0  0  0  0  0  0  0  0
   -8.1782  -15.4798   25.4785 C   0  0  0  0  0  0  0  0  0  0  0  0
   -8.7973  -15.1261   26.6649 N   0  0  0  0  0  0  0  0  0  0  0  0
   -9.5497  -15.8769   27.5311 C   0  0  0  0  0  0  0  0  0  0  0  0
   -9.9968  -14.9948   28.4810 C   0  0  0  0  0  0  0  0  0  0  0  0
   -9.4853  -13.7425   28.2516 N   0  0  0  0  0  0  0  0  0  0  0  0
   -8.7266  -13.8297   27.1723 C   0  0  0  0  0  0  0  0  0  0  0  0
   -7.9105  -12.8789   26.5940 N   0  0  0  0  0  0  0  0  0  0  0  0
   -6.1283  -10.9881   24.8548 N   0  0  0  0  0  0  0  0  0  0  0  0
   -5.0698   -9.9195   24.6210 C   0  0  0  0  0  0  0  0  0  0  0  0
   -5.3965   -9.5235   23.2107 C   0  0  0  0  0  0  0  0  0  0  0  0
   -4.0804   -9.4768   22.1175 C   0  0  0  0  0  0  0  0  0  0  0  0
   -2.8038   -9.3059   22.4522 N   0  0  0  0  0  0  0  0  0  0  0  0
   -2.0573   -9.3325   21.2939 C   0  0  0  0  0  0  0  0  0  0  0  0
   -2.8774   -9.5726   20.2254 C   0  0  0  0  0  0  0  0  0  0  0  0
   -4.1477   -9.6446   20.7500 N   0  0  0  0  0  0  0  0  0  0  0  0
   -6.4401  -10.6272   23.3069 C   0  0  0  0  0  0  0  0  0  0  0  0
   -6.8833  -14.7708   23.9196 H   0  0  0  0  0  0  0  0  0  0  0  0
   -8.3273  -16.4807   25.1086 H   0  0  0  0  0  0  0  0  0  0  0  0
   -9.6930  -16.9322   27.4018 H   0  0  0  0  0  0  0  0  0  0  0  0
  -10.6460  -15.1853   29.3261 H   0  0  0  0  0  0  0  0  0  0  0  0
   -4.0726  -10.3400   24.7923 H   0  0  0  0  0  0  0  0  0  0  0  0
   -5.2284   -9.1269   25.3625 H   0  0  0  0  0  0  0  0  0  0  0  0
   -5.8670   -8.5321   23.1494 H   0  0  0  0  0  0  0  0  0  0  0  0
   -0.9806   -9.2100   21.3060 H   0  0  0  0  0  0  0  0  0  0  0  0
   -2.6769   -9.6889   19.1699 H   0  0  0  0  0  0  0  0  0  0  0  0
   -4.9934   -9.8252   20.2314 H   0  0  0  0  0  0  0  0  0  0  0  0
   -7.4703  -10.2422   23.2729 H   0  0  0  0  0  0  0  0  0  0  0  0
   -6.4300  -11.4933   22.6429 H   0  0  0  0  0  0  0  0  0  0  0  0
  1  2  2  0
  2  3  1  0
  3  4  1  0
  4  5  2  0
  5  6  1  0
  6  7  1  0
  7  8  2  0
  8  9  1  0
  9 10  2  0
 10 11  1  0
  2 12  1  0
 12 13  1  0
 13 14  1  0
 14 15  1  0
 15 16  2  0
 16 17  1  0
 17 18  2  0
 18 19  1  0
 14 20  1  0
 11  3  2  0
 20 12  1  0
 10  6  1  0
 19 15  1  0
  4 21  1  0
  5 22  1  0
  7 23  1  0
  8 24  1  0
 13 25  1  0
 13 26  1  0
 14 27  1  0
 17 28  1  0
 18 29  1  0
 19 30  1  0
 20 31  1  0
 20 32  1  0
M  END
>  <Energy>  (974) 
113.35532234779694

>  <compound_id>  (974) 
8698

>  <target_id>  (974) 
1

>  <reference_id>  (974) 
80

>  <inspiration_ids>  (974) 
[80, 107]

>  <energy_score>  (974) 
4.949875317058741

>  <distance_score>  (974) 
13.677132716648257

>  <path>  (974) 
/opt/xchem-fragalysis-2/maxwin/BulkDock/SCRATCH/511020/C8698-P80/C8698-P80.minimised.mol

>  <scratch_subdir>  (974) 
/opt/xchem-fragalysis-2/maxwin/BulkDock/SCRATCH/511020/C8698-P80

>  <fragmenstein_runtime>  (974) 
24.15561819076538

>  <fragmenstein_outcome>  (974) 
too moved

>  <fragmenstein_mode>  (974) 
expansion

>  <fragmenstein_error>  (974) 


$$$$
C8698-P107
     RDKit          3D

 32 35  0  0  0  0  0  0  0  0999 V2000
   -6.2868  -13.9897   22.8370 O   0  0  0  0  0  0  0  0  0  0  0  0
   -7.0847  -13.1475   23.1891 C   0  0  0  0  0  0  0  0  0  0  0  0
   -7.9516  -13.6925   24.3567 C   0  0  0  0  0  0  0  0  0  0  0  0
   -8.7688  -14.9173   23.9624 C   0  0  0  0  0  0  0  0  0  0  0  0
   -9.3275  -15.6240   24.9572 C   0  0  0  0  0  0  0  0  0  0  0  0
   -9.1753  -15.1829   26.2595 N   0  0  0  0  0  0  0  0  0  0  0  0
   -9.6399  -15.7189   27.4341 C   0  0  0  0  0  0  0  0  0  0  0  0
   -9.2366  -14.8439   28.4105 C   0  0  0  0  0  0  0  0  0  0  0  0
   -8.5216  -13.8066   27.8681 N   0  0  0  0  0  0  0  0  0  0  0  0
   -8.4772  -14.0107   26.5637 C   0  0  0  0  0  0  0  0  0  0  0  0
   -7.8422  -13.2650   25.5872 N   0  0  0  0  0  0  0  0  0  0  0  0
   -7.3801  -11.8361   22.6313 N   0  0  0  0  0  0  0  0  0  0  0  0
   -6.8582  -11.1432   21.3630 C   0  0  0  0  0  0  0  0  0  0  0  0
   -6.1541   -9.9829   21.9977 C   0  0  0  0  0  0  0  0  0  0  0  0
   -4.6180   -9.6954   21.4169 C   0  0  0  0  0  0  0  0  0  0  0  0
   -4.2068  -10.0087   20.1945 N   0  0  0  0  0  0  0  0  0  0  0  0
   -2.8572   -9.7190   20.1389 C   0  0  0  0  0  0  0  0  0  0  0  0
   -2.4442   -9.1707   21.3237 C   0  0  0  0  0  0  0  0  0  0  0  0
   -3.5802   -9.0925   22.0942 N   0  0  0  0  0  0  0  0  0  0  0  0
   -6.4628  -10.6914   23.3045 C   0  0  0  0  0  0  0  0  0  0  0  0
   -8.8176  -15.1932   22.9169 H   0  0  0  0  0  0  0  0  0  0  0  0
   -9.9004  -16.5233   24.7910 H   0  0  0  0  0  0  0  0  0  0  0  0
  -10.2111  -16.6289   27.4784 H   0  0  0  0  0  0  0  0  0  0  0  0
   -9.4213  -14.8887   29.4753 H   0  0  0  0  0  0  0  0  0  0  0  0
   -6.2349  -11.8379   20.7866 H   0  0  0  0  0  0  0  0  0  0  0  0
   -7.7021  -10.8591   20.7223 H   0  0  0  0  0  0  0  0  0  0  0  0
   -6.7174   -9.0450   21.8997 H   0  0  0  0  0  0  0  0  0  0  0  0
   -2.2697   -9.9242   19.2531 H   0  0  0  0  0  0  0  0  0  0  0  0
   -1.4781   -8.8386   21.6758 H   0  0  0  0  0  0  0  0  0  0  0  0
   -3.6294   -8.7379   23.0446 H   0  0  0  0  0  0  0  0  0  0  0  0
   -5.6712  -11.0840   23.9441 H   0  0  0  0  0  0  0  0  0  0  0  0
   -7.1153  -10.1018   23.9649 H   0  0  0  0  0  0  0  0  0  0  0  0
  1  2  2  0
  2  3  1  0
  3  4  1  0
  4  5  2  0
  5  6  1  0
  6  7  1  0
  7  8  2  0
  8  9  1  0
  9 10  2  0
 10 11  1  0
  2 12  1  0
 12 13  1  0
 13 14  1  0
 14 15  1  0
 15 16  2  0
 16 17  1  0
 17 18  2  0
 18 19  1  0
 14 20  1  0
 11  3  2  0
 20 12  1  0
 10  6  1  0
 19 15  1  0
  4 21  1  0
  5 22  1  0
  7 23  1  0
  8 24  1  0
 13 25  1  0
 13 26  1  0
 14 27  1  0
 17 28  1  0
 18 29  1  0
 19 30  1  0
 20 31  1  0
 20 32  1  0
M  END
>  <Energy>  (975) 
103.96137696651381

>  <compound_id>  (975) 
8698

>  <target_id>  (975) 
1

>  <reference_id>  (975) 
107

>  <inspiration_ids>  (975) 
[80, 107]

>  <energy_score>  (975) 
-4.44407006422432

>  <distance_score>  (975) 
13.836603107706214

>  <path>  (975) 
/opt/xchem-fragalysis-2/maxwin/BulkDock/SCRATCH/511020/C8698-P107/C8698-P107.minimised.mol

>  <scratch_subdir>  (975) 
/opt/xchem-fragalysis-2/maxwin/BulkDock/SCRATCH/511020/C8698-P107

>  <fragmenstein_runtime>  (975) 
22.21883773803711

>  <fragmenstein_outcome>  (975) 
too moved

>  <fragmenstein_mode>  (975) 
expansion

>  <fragmenstein_error>  (975) 


$$$$
C8702-P80
     RDKit          3D

 31 33  0  0  0  0  0  0  0  0999 V2000
    3.1887  -14.1961   29.4162 C   0  0  0  0  0  0  0  0  0  0  0  0
    2.4628  -13.0309   29.0297 O   0  0  0  0  0  0  0  0  0  0  0  0
    1.1917  -13.2849   28.5973 C   0  0  0  0  0  0  0  0  0  0  0  0
    0.6745  -14.4003   28.5939 O   0  0  0  0  0  0  0  0  0  0  0  0
    0.4610  -12.0642   28.2319 C   0  0  0  0  0  0  0  0  0  0  0  0
    1.1071  -10.7751   27.9775 N   0  0  0  0  0  0  0  0  0  0  0  0
    0.1051   -9.9316   28.0245 C   0  0  0  0  0  0  0  0  0  0  0  0
   -1.1083  -10.6209   27.9450 N   0  0  0  0  0  0  0  0  0  0  0  0
   -0.9575  -12.0163   28.1411 C   0  0  0  0  0  0  0  0  0  0  0  0
   -1.9432  -13.1323   28.2801 N   0  0  0  0  0  0  0  0  0  0  0  0
   -3.5338  -13.1636   28.0051 C   0  0  0  0  0  0  0  0  0  0  0  0
   -4.2504  -12.3306   27.5589 O   0  0  0  0  0  0  0  0  0  0  0  0
   -4.3825  -14.6555   28.3490 C   0  0  0  0  0  0  0  0  0  0  0  0
   -4.9422  -15.5185   27.1730 C   0  0  0  0  0  0  0  0  0  0  0  0
   -5.7364  -16.5808   27.4417 C   0  0  0  0  0  0  0  0  0  0  0  0
   -5.9745  -16.8954   28.7578 N   0  0  0  0  0  0  0  0  0  0  0  0
   -6.4532  -18.0485   29.2757 C   0  0  0  0  0  0  0  0  0  0  0  0
   -5.9206  -18.0259   30.5442 C   0  0  0  0  0  0  0  0  0  0  0  0
   -5.6650  -16.7582   30.9344 N   0  0  0  0  0  0  0  0  0  0  0  0
   -5.4871  -16.1227   29.7991 C   0  0  0  0  0  0  0  0  0  0  0  0
   -4.7531  -14.9678   29.5791 N   0  0  0  0  0  0  0  0  0  0  0  0
    3.2772  -14.8929   28.5770 H   0  0  0  0  0  0  0  0  0  0  0  0
    2.7093  -14.6793   30.2732 H   0  0  0  0  0  0  0  0  0  0  0  0
    4.1943  -13.8855   29.7129 H   0  0  0  0  0  0  0  0  0  0  0  0
    0.1450   -8.8488   28.0506 H   0  0  0  0  0  0  0  0  0  0  0  0
   -2.0155  -10.1770   27.9453 H   0  0  0  0  0  0  0  0  0  0  0  0
   -1.6311  -14.0519   28.5950 H   0  0  0  0  0  0  0  0  0  0  0  0
   -4.6792  -15.1983   26.1730 H   0  0  0  0  0  0  0  0  0  0  0  0
   -6.1365  -17.2307   26.6758 H   0  0  0  0  0  0  0  0  0  0  0  0
   -6.8417  -18.8008   28.6197 H   0  0  0  0  0  0  0  0  0  0  0  0
   -5.6620  -18.8377   31.2068 H   0  0  0  0  0  0  0  0  0  0  0  0
  1  2  1  0
  2  3  1  0
  3  4  2  0
  3  5  1  0
  5  6  1  0
  6  7  2  0
  7  8  1  0
  8  9  1  0
  9 10  1  0
 10 11  1  0
 11 12  2  0
 11 13  1  0
 13 14  1  0
 14 15  2  0
 15 16  1  0
 16 17  1  0
 17 18  2  0
 18 19  1  0
 19 20  2  0
 20 21  1  0
  9  5  2  0
 21 13  2  0
 20 16  1  0
  1 22  1  0
  1 23  1  0
  1 24  1  0
  7 25  1  0
  8 26  1  0
 10 27  1  0
 14 28  1  0
 15 29  1  0
 17 30  1  0
 18 31  1  0
M  END
>  <Energy>  (976) 
177.92887625708539

>  <compound_id>  (976) 
8702

>  <target_id>  (976) 
1

>  <reference_id>  (976) 
80

>  <inspiration_ids>  (976) 
[80, 107]

>  <energy_score>  (976) 
50.73207009605852

>  <distance_score>  (976) 
14.347591655189655

>  <path>  (976) 
/opt/xchem-fragalysis-2/maxwin/BulkDock/SCRATCH/511020/C8702-P80/C8702-P80.minimised.mol

>  <scratch_subdir>  (976) 
/opt/xchem-fragalysis-2/maxwin/BulkDock/SCRATCH/511020/C8702-P80

>  <fragmenstein_runtime>  (976) 
9.38955545425415

>  <fragmenstein_outcome>  (976) 
too moved

>  <fragmenstein_mode>  (976) 
expansion

>  <fragmenstein_error>  (976) 


$$$$
C8702-P107
     RDKit          3D

 31 33  0  0  0  0  0  0  0  0999 V2000
   -1.6416   -9.6772   31.0585 C   0  0  0  0  0  0  0  0  0  0  0  0
   -1.0423  -10.2984   29.9234 O   0  0  0  0  0  0  0  0  0  0  0  0
   -1.5817  -11.5108   29.6003 C   0  0  0  0  0  0  0  0  0  0  0  0
   -2.5055  -12.0409   30.2115 O   0  0  0  0  0  0  0  0  0  0  0  0
   -0.9400  -12.1220   28.4329 C   0  0  0  0  0  0  0  0  0  0  0  0
    0.1834  -11.4988   27.7487 N   0  0  0  0  0  0  0  0  0  0  0  0
    0.4909  -12.4010   26.8709 C   0  0  0  0  0  0  0  0  0  0  0  0
   -0.4279  -13.4344   26.7934 N   0  0  0  0  0  0  0  0  0  0  0  0
   -1.3471  -13.3669   27.8604 C   0  0  0  0  0  0  0  0  0  0  0  0
   -2.4177  -14.3020   28.2787 N   0  0  0  0  0  0  0  0  0  0  0  0
   -2.9358  -15.6642   27.5989 C   0  0  0  0  0  0  0  0  0  0  0  0
   -2.6272  -16.1742   26.5753 O   0  0  0  0  0  0  0  0  0  0  0  0
   -4.0794  -16.5968   28.4909 C   0  0  0  0  0  0  0  0  0  0  0  0
   -3.8874  -18.1420   28.4126 C   0  0  0  0  0  0  0  0  0  0  0  0
   -4.4602  -18.8883   29.3759 C   0  0  0  0  0  0  0  0  0  0  0  0
   -5.2864  -18.2558   30.2832 N   0  0  0  0  0  0  0  0  0  0  0  0
   -5.5041  -18.5311   31.6039 C   0  0  0  0  0  0  0  0  0  0  0  0
   -6.3740  -17.5485   32.0236 C   0  0  0  0  0  0  0  0  0  0  0  0
   -6.6423  -16.6652   31.0022 N   0  0  0  0  0  0  0  0  0  0  0  0
   -5.7634  -16.9650   30.0567 C   0  0  0  0  0  0  0  0  0  0  0  0
   -5.1141  -16.1096   29.1559 N   0  0  0  0  0  0  0  0  0  0  0  0
   -1.1362   -8.7226   31.2290 H   0  0  0  0  0  0  0  0  0  0  0  0
   -2.7017   -9.4784   30.8725 H   0  0  0  0  0  0  0  0  0  0  0  0
   -1.5137  -10.2997   31.9496 H   0  0  0  0  0  0  0  0  0  0  0  0
    1.2616  -12.4117   26.1534 H   0  0  0  0  0  0  0  0  0  0  0  0
   -0.3975  -14.1651   26.0956 H   0  0  0  0  0  0  0  0  0  0  0  0
   -2.9566  -14.1148   29.1270 H   0  0  0  0  0  0  0  0  0  0  0  0
   -3.1689  -18.5198   27.6967 H   0  0  0  0  0  0  0  0  0  0  0  0
   -4.2074  -19.9244   29.5495 H   0  0  0  0  0  0  0  0  0  0  0  0
   -5.0954  -19.4004   32.0974 H   0  0  0  0  0  0  0  0  0  0  0  0
   -6.8364  -17.4546   32.9973 H   0  0  0  0  0  0  0  0  0  0  0  0
  1  2  1  0
  2  3  1  0
  3  4  2  0
  3  5  1  0
  5  6  1  0
  6  7  2  0
  7  8  1  0
  8  9  1  0
  9 10  1  0
 10 11  1  0
 11 12  2  0
 11 13  1  0
 13 14  1  0
 14 15  2  0
 15 16  1  0
 16 17  1  0
 17 18  2  0
 18 19  1  0
 19 20  2  0
 20 21  1  0
  9  5  2  0
 21 13  2  0
 20 16  1  0
  1 22  1  0
  1 23  1  0
  1 24  1  0
  7 25  1  0
  8 26  1  0
 10 27  1  0
 14 28  1  0
 15 29  1  0
 17 30  1  0
 18 31  1  0
M  END
>  <Energy>  (977) 
167.43698812332485

>  <compound_id>  (977) 
8702

>  <target_id>  (977) 
1

>  <reference_id>  (977) 
107

>  <inspiration_ids>  (977) 
[80, 107]

>  <energy_score>  (977) 
40.24018196229463

>  <distance_score>  (977) 
14.300573658102914

>  <path>  (977) 
/opt/xchem-fragalysis-2/maxwin/BulkDock/SCRATCH/511020/C8702-P107/C8702-P107.minimised.mol

>  <scratch_subdir>  (977) 
/opt/xchem-fragalysis-2/maxwin/BulkDock/SCRATCH/511020/C8702-P107

>  <fragmenstein_runtime>  (977) 
10.521710634231567

>  <fragmenstein_outcome>  (977) 
too moved

>  <fragmenstein_mode>  (977) 
expansion

>  <fragmenstein_error>  (977) 


$$$$
C8704-P80
     RDKit          3D

 29 32  0  0  0  0  0  0  0  0999 V2000
   -0.5538  -13.9952   23.0967 C   0  0  0  0  0  0  0  0  0  0  0  0
   -1.0914  -13.7368   25.0708 C   0  0  0  0  0  0  0  0  0  0  0  0
    0.5696  -13.4513   25.8217 N   0  0  0  0  0  0  0  0  0  0  0  0
    0.4338  -14.3216   24.6190 C   0  0  0  0  0  0  0  0  0  0  0  0
   -1.1045  -15.1146   24.5517 N   0  0  0  0  0  0  0  0  0  0  0  0
   -2.1122  -14.6986   25.4592 C   0  0  0  0  0  0  0  0  0  0  0  0
   -3.1466  -15.9018   26.4161 C   0  0  0  0  0  0  0  0  0  0  0  0
   -4.3361  -15.5550   26.9769 N   0  0  0  0  0  0  0  0  0  0  0  0
   -5.0867  -16.7493   27.3626 O   0  0  0  0  0  0  0  0  0  0  0  0
   -4.4437  -17.9891   27.0665 C   0  0  0  0  0  0  0  0  0  0  0  0
   -5.3858  -19.5155   27.3055 C   0  0  0  0  0  0  0  0  0  0  0  0
   -4.8743  -21.1295   27.2345 C   0  0  0  0  0  0  0  0  0  0  0  0
   -5.7463  -22.2729   27.4058 C   0  0  0  0  0  0  0  0  0  0  0  0
   -7.2964  -22.1888   27.6816 N   0  0  0  0  0  0  0  0  0  0  0  0
   -8.6030  -22.9675   28.1118 C   0  0  0  0  0  0  0  0  0  0  0  0
   -9.6938  -22.1341   28.4025 C   0  0  0  0  0  0  0  0  0  0  0  0
   -9.2814  -20.8200   27.8931 N   0  0  0  0  0  0  0  0  0  0  0  0
   -7.7323  -20.8450   27.6594 C   0  0  0  0  0  0  0  0  0  0  0  0
   -6.7340  -19.5328   27.6055 N   0  0  0  0  0  0  0  0  0  0  0  0
   -3.2277  -17.5658   26.4626 N   0  0  0  0  0  0  0  0  0  0  0  0
   -1.2819  -14.7241   22.7033 H   0  0  0  0  0  0  0  0  0  0  0  0
   -0.3054  -12.9780   22.7824 H   0  0  0  0  0  0  0  0  0  0  0  0
    0.1791  -14.4882   22.4665 H   0  0  0  0  0  0  0  0  0  0  0  0
    1.0367  -12.5780   25.6442 H   0  0  0  0  0  0  0  0  0  0  0  0
    1.1432  -14.2753   23.7976 H   0  0  0  0  0  0  0  0  0  0  0  0
   -3.8101  -21.2312   27.0490 H   0  0  0  0  0  0  0  0  0  0  0  0
   -5.3368  -23.2584   27.3711 H   0  0  0  0  0  0  0  0  0  0  0  0
   -8.6685  -24.0108   28.3761 H   0  0  0  0  0  0  0  0  0  0  0  0
  -10.7035  -22.3170   28.7456 H   0  0  0  0  0  0  0  0  0  0  0  0
  1  2  1  0
  2  3  1  0
  3  4  1  0
  4  5  2  0
  5  6  1  0
  6  7  1  0
  7  8  2  0
  8  9  1  0
  9 10  1  0
 10 11  1  0
 11 12  1  0
 12 13  2  0
 13 14  1  0
 14 15  1  0
 15 16  2  0
 16 17  1  0
 17 18  2  0
 18 19  1  0
 10 20  2  0
  6  2  2  0
 20  7  1  0
 19 11  2  0
 18 14  1  0
  1 21  1  0
  1 22  1  0
  1 23  1  0
  3 24  1  0
  4 25  1  0
 12 26  1  0
 13 27  1  0
 15 28  1  0
 16 29  1  0
M  END
>  <Energy>  (978) 
946.05699647500387

>  <compound_id>  (978) 
8704

>  <target_id>  (978) 
1

>  <reference_id>  (978) 
80

>  <inspiration_ids>  (978) 
[80, 107]

>  <energy_score>  (978) 
813.2085457094631

>  <distance_score>  (978) 
13.45931115786418

>  <path>  (978) 
/opt/xchem-fragalysis-2/maxwin/BulkDock/SCRATCH/511020/C8704-P80/C8704-P80.minimised.mol

>  <scratch_subdir>  (978) 
/opt/xchem-fragalysis-2/maxwin/BulkDock/SCRATCH/511020/C8704-P80

>  <fragmenstein_runtime>  (978) 
14.492732524871826

>  <fragmenstein_outcome>  (978) 
too moved

>  <fragmenstein_mode>  (978) 
expansion

>  <fragmenstein_error>  (978) 


$$$$
C8704-P107
     RDKit          3D

 29 32  0  0  0  0  0  0  0  0999 V2000
    5.6393   -8.6317   23.1468 C   0  0  0  0  0  0  0  0  0  0  0  0
    5.5152  -10.0898   22.5879 C   0  0  0  0  0  0  0  0  0  0  0  0
    6.7568  -10.5844   22.1841 N   0  0  0  0  0  0  0  0  0  0  0  0
    7.0011  -11.1300   23.4014 C   0  0  0  0  0  0  0  0  0  0  0  0
    5.7742  -11.4790   23.8014 N   0  0  0  0  0  0  0  0  0  0  0  0
    4.4302  -11.3289   22.5880 C   0  0  0  0  0  0  0  0  0  0  0  0
    2.6729  -12.1791   23.1510 C   0  0  0  0  0  0  0  0  0  0  0  0
    1.2649  -11.7841   22.7742 N   0  0  0  0  0  0  0  0  0  0  0  0
    0.0127  -13.1363   22.8237 O   0  0  0  0  0  0  0  0  0  0  0  0
    0.3006  -14.1188   23.9854 C   0  0  0  0  0  0  0  0  0  0  0  0
   -1.3745  -14.6766   24.8378 C   0  0  0  0  0  0  0  0  0  0  0  0
   -2.5341  -16.0314   24.9964 C   0  0  0  0  0  0  0  0  0  0  0  0
   -3.1379  -16.5810   26.1331 C   0  0  0  0  0  0  0  0  0  0  0  0
   -3.2015  -15.9436   27.2751 N   0  0  0  0  0  0  0  0  0  0  0  0
   -3.7208  -16.3019   28.4806 C   0  0  0  0  0  0  0  0  0  0  0  0
   -3.3786  -15.2551   29.2817 C   0  0  0  0  0  0  0  0  0  0  0  0
   -2.6542  -14.3490   28.5442 N   0  0  0  0  0  0  0  0  0  0  0  0
   -2.5478  -14.7756   27.2747 C   0  0  0  0  0  0  0  0  0  0  0  0
   -1.8812  -14.1220   25.9950 N   0  0  0  0  0  0  0  0  0  0  0  0
    1.8396  -13.3634   24.1494 N   0  0  0  0  0  0  0  0  0  0  0  0
    4.7947   -7.9741   22.9299 H   0  0  0  0  0  0  0  0  0  0  0  0
    6.5067   -8.1436   22.6819 H   0  0  0  0  0  0  0  0  0  0  0  0
    5.8341   -8.6447   24.2232 H   0  0  0  0  0  0  0  0  0  0  0  0
    7.4679  -10.0526   21.7051 H   0  0  0  0  0  0  0  0  0  0  0  0
    7.9512  -11.2493   23.9033 H   0  0  0  0  0  0  0  0  0  0  0  0
   -2.1717  -16.9866   24.8112 H   0  0  0  0  0  0  0  0  0  0  0  0
   -3.3115  -17.6472   26.3107 H   0  0  0  0  0  0  0  0  0  0  0  0
   -4.2670  -17.2171   28.6597 H   0  0  0  0  0  0  0  0  0  0  0  0
   -3.5886  -15.0970   30.3317 H   0  0  0  0  0  0  0  0  0  0  0  0
  1  2  1  0
  2  3  1  0
  3  4  1  0
  4  5  2  0
  5  6  1  0
  6  7  1  0
  7  8  2  0
  8  9  1  0
  9 10  1  0
 10 11  1  0
 11 12  1  0
 12 13  2  0
 13 14  1  0
 14 15  1  0
 15 16  2  0
 16 17  1  0
 17 18  2  0
 18 19  1  0
 10 20  2  0
  6  2  2  0
 20  7  1  0
 19 11  2  0
 18 14  1  0
  1 21  1  0
  1 22  1  0
  1 23  1  0
  3 24  1  0
  4 25  1  0
 12 26  1  0
 13 27  1  0
 15 28  1  0
 16 29  1  0
M  END
>  <Energy>  (979) 
910.94599562576366

>  <compound_id>  (979) 
8704

>  <target_id>  (979) 
1

>  <reference_id>  (979) 
107

>  <inspiration_ids>  (979) 
[80, 107]

>  <energy_score>  (979) 
778.0975448602366

>  <distance_score>  (979) 
13.222684568714074

>  <path>  (979) 
/opt/xchem-fragalysis-2/maxwin/BulkDock/SCRATCH/511020/C8704-P107/C8704-P107.minimised.mol

>  <scratch_subdir>  (979) 
/opt/xchem-fragalysis-2/maxwin/BulkDock/SCRATCH/511020/C8704-P107

>  <fragmenstein_runtime>  (979) 
11.088995456695557

>  <fragmenstein_outcome>  (979) 
too moved

>  <fragmenstein_mode>  (979) 
expansion

>  <fragmenstein_error>  (979) 


$$$$
C8700-P80
     RDKit          3D

 37 39  0  0  0  0  0  0  0  0999 V2000
   -0.1247  -20.2798   21.7829 C   0  0  0  0  0  0  0  0  0  0  0  0
   -1.1757  -21.1325   21.1484 N   0  0  0  0  0  0  0  0  0  0  0  0
   -0.1677  -21.1220   19.9866 C   0  0  0  0  0  0  0  0  0  0  0  0
    0.0738  -19.9967   18.9753 C   0  0  0  0  0  0  0  0  0  0  0  0
    1.2644  -19.7482   18.4465 N   0  0  0  0  0  0  0  0  0  0  0  0
    1.0526  -19.1326   17.2470 C   0  0  0  0  0  0  0  0  0  0  0  0
   -0.2917  -18.9639   17.0500 C   0  0  0  0  0  0  0  0  0  0  0  0
   -0.8879  -19.3628   18.2218 N   0  0  0  0  0  0  0  0  0  0  0  0
   -2.3135  -19.3650   18.4788 C   0  0  0  0  0  0  0  0  0  0  0  0
   -2.7307  -18.3198   19.4933 C   0  0  0  0  0  0  0  0  0  0  0  0
   -4.0170  -18.5684   19.8657 F   0  0  0  0  0  0  0  0  0  0  0  0
   -2.7441  -17.0923   18.9094 F   0  0  0  0  0  0  0  0  0  0  0  0
   -1.5632  -22.1932   22.0446 C   0  0  0  0  0  0  0  0  0  0  0  0
   -1.1298  -23.3136   22.1663 O   0  0  0  0  0  0  0  0  0  0  0  0
   -2.6452  -21.9194   23.1318 C   0  0  0  0  0  0  0  0  0  0  0  0
   -3.6371  -23.0571   23.2928 C   0  0  0  0  0  0  0  0  0  0  0  0
   -4.2368  -23.1471   24.4879 C   0  0  0  0  0  0  0  0  0  0  0  0
   -4.0107  -22.1588   25.4284 N   0  0  0  0  0  0  0  0  0  0  0  0
   -4.4007  -22.0754   26.7405 C   0  0  0  0  0  0  0  0  0  0  0  0
   -3.9867  -20.8353   27.1610 C   0  0  0  0  0  0  0  0  0  0  0  0
   -3.3488  -20.1688   26.1459 N   0  0  0  0  0  0  0  0  0  0  0  0
   -3.2831  -21.0079   25.1270 C   0  0  0  0  0  0  0  0  0  0  0  0
   -2.5585  -20.9096   23.9592 N   0  0  0  0  0  0  0  0  0  0  0  0
   -0.5236  -19.9997   22.7665 H   0  0  0  0  0  0  0  0  0  0  0  0
    0.8051  -20.8123   22.0354 H   0  0  0  0  0  0  0  0  0  0  0  0
    0.0127  -19.3094   21.2918 H   0  0  0  0  0  0  0  0  0  0  0  0
    0.7785  -21.6334   20.2419 H   0  0  0  0  0  0  0  0  0  0  0  0
   -0.6212  -21.9021   19.3497 H   0  0  0  0  0  0  0  0  0  0  0  0
    1.8638  -18.8857   16.5767 H   0  0  0  0  0  0  0  0  0  0  0  0
   -0.8532  -18.5716   16.2130 H   0  0  0  0  0  0  0  0  0  0  0  0
   -2.5984  -20.3680   18.8114 H   0  0  0  0  0  0  0  0  0  0  0  0
   -2.8272  -19.1867   17.5273 H   0  0  0  0  0  0  0  0  0  0  0  0
   -2.1015  -18.2896   20.3849 H   0  0  0  0  0  0  0  0  0  0  0  0
   -3.7305  -23.7952   22.5077 H   0  0  0  0  0  0  0  0  0  0  0  0
   -4.8972  -23.9581   24.7518 H   0  0  0  0  0  0  0  0  0  0  0  0
   -4.9383  -22.8688   27.2297 H   0  0  0  0  0  0  0  0  0  0  0  0
   -4.1033  -20.3778   28.1355 H   0  0  0  0  0  0  0  0  0  0  0  0
  1  2  1  0
  2  3  1  0
  3  4  1  0
  4  5  2  0
  5  6  1  0
  6  7  2  0
  7  8  1  0
  8  9  1  0
  9 10  1  0
 10 11  1  0
 10 12  1  0
  2 13  1  0
 13 14  2  0
 13 15  1  0
 15 16  1  0
 16 17  2  0
 17 18  1  0
 18 19  1  0
 19 20  2  0
 20 21  1  0
 21 22  2  0
 22 23  1  0
  8  4  1  0
 23 15  2  0
 22 18  1  0
  1 24  1  0
  1 25  1  0
  1 26  1  0
  3 27  1  0
  3 28  1  0
  6 29  1  0
  7 30  1  0
  9 31  1  0
  9 32  1  0
 10 33  1  0
 16 34  1  0
 17 35  1  0
 19 36  1  0
 20 37  1  0
M  END
>  <Energy>  (980) 
148.36818318631546

>  <compound_id>  (980) 
8700

>  <target_id>  (980) 
1

>  <reference_id>  (980) 
80

>  <inspiration_ids>  (980) 
[80, 107]

>  <energy_score>  (980) 
44.6199736223673

>  <distance_score>  (980) 
15.003428157213882

>  <path>  (980) 
/opt/xchem-fragalysis-2/maxwin/BulkDock/SCRATCH/511020/C8700-P80/C8700-P80.minimised.mol

>  <scratch_subdir>  (980) 
/opt/xchem-fragalysis-2/maxwin/BulkDock/SCRATCH/511020/C8700-P80

>  <fragmenstein_runtime>  (980) 
27.634129762649536

>  <fragmenstein_outcome>  (980) 
too moved

>  <fragmenstein_mode>  (980) 
expansion

>  <fragmenstein_error>  (980) 


$$$$
C8700-P107
     RDKit          3D

 37 39  0  0  0  0  0  0  0  0999 V2000
   -1.1774  -17.3452   19.8258 C   0  0  0  0  0  0  0  0  0  0  0  0
   -0.2021  -17.5717   20.9304 N   0  0  0  0  0  0  0  0  0  0  0  0
    0.7815  -16.2532   19.9898 C   0  0  0  0  0  0  0  0  0  0  0  0
    2.3522  -14.8809   19.6472 C   0  0  0  0  0  0  0  0  0  0  0  0
    2.6672  -14.1417   20.7162 N   0  0  0  0  0  0  0  0  0  0  0  0
    3.7990  -13.1056   20.8119 C   0  0  0  0  0  0  0  0  0  0  0  0
    4.5945  -13.2354   19.7295 C   0  0  0  0  0  0  0  0  0  0  0  0
    3.5216  -13.9954   18.5769 N   0  0  0  0  0  0  0  0  0  0  0  0
    3.6170  -12.5049   17.9368 C   0  0  0  0  0  0  0  0  0  0  0  0
    3.4945  -11.5250   16.6754 C   0  0  0  0  0  0  0  0  0  0  0  0
    3.3812  -10.2395   17.0500 F   0  0  0  0  0  0  0  0  0  0  0  0
    4.1414  -11.5932   15.5055 F   0  0  0  0  0  0  0  0  0  0  0  0
    0.0307  -19.0288   21.0954 C   0  0  0  0  0  0  0  0  0  0  0  0
    0.8565  -19.7541   20.5929 O   0  0  0  0  0  0  0  0  0  0  0  0
   -1.0260  -19.6869   22.2001 C   0  0  0  0  0  0  0  0  0  0  0  0
   -0.8792  -21.1758   22.4483 C   0  0  0  0  0  0  0  0  0  0  0  0
   -1.6462  -21.7237   23.4109 C   0  0  0  0  0  0  0  0  0  0  0  0
   -2.5157  -20.9213   24.1333 N   0  0  0  0  0  0  0  0  0  0  0  0
   -3.3005  -21.2161   25.2237 C   0  0  0  0  0  0  0  0  0  0  0  0
   -3.8485  -20.0147   25.6018 C   0  0  0  0  0  0  0  0  0  0  0  0
   -3.5003  -19.0199   24.7202 N   0  0  0  0  0  0  0  0  0  0  0  0
   -2.6632  -19.5667   23.8485 C   0  0  0  0  0  0  0  0  0  0  0  0
   -1.9330  -18.9731   22.8394 N   0  0  0  0  0  0  0  0  0  0  0  0
   -1.7385  -16.4051   19.7281 H   0  0  0  0  0  0  0  0  0  0  0  0
   -2.0112  -18.0245   20.0760 H   0  0  0  0  0  0  0  0  0  0  0  0
   -0.8281  -17.8326   18.9090 H   0  0  0  0  0  0  0  0  0  0  0  0
    0.8196  -15.8389   20.9679 H   0  0  0  0  0  0  0  0  0  0  0  0
   -0.1414  -15.7955   19.8662 H   0  0  0  0  0  0  0  0  0  0  0  0
    3.8188  -12.5207   21.7137 H   0  0  0  0  0  0  0  0  0  0  0  0
    5.5715  -12.9327   19.4177 H   0  0  0  0  0  0  0  0  0  0  0  0
    2.8979  -11.9497   18.3695 H   0  0  0  0  0  0  0  0  0  0  0  0
    4.5279  -12.1106   18.2802 H   0  0  0  0  0  0  0  0  0  0  0  0
    2.5833  -11.8071   16.3658 H   0  0  0  0  0  0  0  0  0  0  0  0
   -0.1467  -21.7212   21.8674 H   0  0  0  0  0  0  0  0  0  0  0  0
   -1.5880  -22.7697   23.6808 H   0  0  0  0  0  0  0  0  0  0  0  0
   -3.3524  -22.2091   25.6444 H   0  0  0  0  0  0  0  0  0  0  0  0
   -4.4861  -19.8085   26.4510 H   0  0  0  0  0  0  0  0  0  0  0  0
  1  2  1  0
  2  3  1  0
  3  4  1  0
  4  5  2  0
  5  6  1  0
  6  7  2  0
  7  8  1  0
  8  9  1  0
  9 10  1  0
 10 11  1  0
 10 12  1  0
  2 13  1  0
 13 14  2  0
 13 15  1  0
 15 16  1  0
 16 17  2  0
 17 18  1  0
 18 19  1  0
 19 20  2  0
 20 21  1  0
 21 22  2  0
 22 23  1  0
  8  4  1  0
 23 15  2  0
 22 18  1  0
  1 24  1  0
  1 25  1  0
  1 26  1  0
  3 27  1  0
  3 28  1  0
  6 29  1  0
  7 30  1  0
  9 31  1  0
  9 32  1  0
 10 33  1  0
 16 34  1  0
 17 35  1  0
 19 36  1  0
 20 37  1  0
M  END
>  <Energy>  (981) 
660.5156009570411

>  <compound_id>  (981) 
8700

>  <target_id>  (981) 
1

>  <reference_id>  (981) 
107

>  <inspiration_ids>  (981) 
[80, 107]

>  <energy_score>  (981) 
556.7673913931129

>  <distance_score>  (981) 
13.491436838401503

>  <path>  (981) 
/opt/xchem-fragalysis-2/maxwin/BulkDock/SCRATCH/511020/C8700-P107/C8700-P107.minimised.mol

>  <scratch_subdir>  (981) 
/opt/xchem-fragalysis-2/maxwin/BulkDock/SCRATCH/511020/C8700-P107

>  <fragmenstein_runtime>  (981) 
32.182584285736084

>  <fragmenstein_outcome>  (981) 
too moved

>  <fragmenstein_mode>  (981) 
expansion

>  <fragmenstein_error>  (981) 


$$$$
C8697-P80
     RDKit          3D

 32 35  0  0  0  0  0  0  0  0999 V2000
    0.5438  -13.7939   23.5541 O   0  0  0  0  0  0  0  0  0  0  0  0
   -0.5367  -13.6366   23.0050 C   0  0  0  0  0  0  0  0  0  0  0  0
   -1.8954  -15.0567   23.7233 C   0  0  0  0  0  0  0  0  0  0  0  0
   -2.2566  -15.2042   25.2591 C   0  0  0  0  0  0  0  0  0  0  0  0
   -3.0728  -16.0912   25.9928 C   0  0  0  0  0  0  0  0  0  0  0  0
   -4.2056  -16.5381   25.3389 N   0  0  0  0  0  0  0  0  0  0  0  0
   -5.3566  -17.1727   25.7437 C   0  0  0  0  0  0  0  0  0  0  0  0
   -6.2308  -16.9580   24.7010 C   0  0  0  0  0  0  0  0  0  0  0  0
   -5.6370  -16.2683   23.6675 N   0  0  0  0  0  0  0  0  0  0  0  0
   -4.3963  -16.0066   24.0507 C   0  0  0  0  0  0  0  0  0  0  0  0
   -3.3393  -15.2628   23.4085 N   0  0  0  0  0  0  0  0  0  0  0  0
   -1.2032  -12.1319   21.6623 N   0  0  0  0  0  0  0  0  0  0  0  0
   -0.3015  -10.6595   21.1651 C   0  0  0  0  0  0  0  0  0  0  0  0
   -1.4531   -9.8761   20.6294 C   0  0  0  0  0  0  0  0  0  0  0  0
   -0.9075   -8.2999   20.4628 C   0  0  0  0  0  0  0  0  0  0  0  0
   -0.7566   -7.2829   21.3799 C   0  0  0  0  0  0  0  0  0  0  0  0
   -0.0342   -6.2253   20.8481 N   0  0  0  0  0  0  0  0  0  0  0  0
    0.2902   -6.6023   19.6336 C   0  0  0  0  0  0  0  0  0  0  0  0
   -0.2131   -7.8410   19.3567 N   0  0  0  0  0  0  0  0  0  0  0  0
   -2.0641  -10.4001   21.9046 C   0  0  0  0  0  0  0  0  0  0  0  0
   -1.8835  -14.3498   25.7693 H   0  0  0  0  0  0  0  0  0  0  0  0
   -3.1318  -16.0888   27.0765 H   0  0  0  0  0  0  0  0  0  0  0  0
   -5.4637  -17.6195   26.7209 H   0  0  0  0  0  0  0  0  0  0  0  0
   -7.2744  -17.1970   24.6110 H   0  0  0  0  0  0  0  0  0  0  0  0
   -0.0806  -10.2856   22.1965 H   0  0  0  0  0  0  0  0  0  0  0  0
    0.7450  -10.4294   21.1173 H   0  0  0  0  0  0  0  0  0  0  0  0
   -1.9402  -10.2341   19.7148 H   0  0  0  0  0  0  0  0  0  0  0  0
   -1.0906   -7.2572   22.4087 H   0  0  0  0  0  0  0  0  0  0  0  0
    0.8935   -6.0476   18.9288 H   0  0  0  0  0  0  0  0  0  0  0  0
    0.0227   -8.4229   18.5656 H   0  0  0  0  0  0  0  0  0  0  0  0
   -1.7627   -9.5919   22.6094 H   0  0  0  0  0  0  0  0  0  0  0  0
   -3.1332  -10.4710   21.6727 H   0  0  0  0  0  0  0  0  0  0  0  0
  1  2  2  0
  2  3  1  0
  3  4  1  0
  4  5  2  0
  5  6  1  0
  6  7  1  0
  7  8  2  0
  8  9  1  0
  9 10  2  0
 10 11  1  0
  2 12  1  0
 12 13  1  0
 13 14  1  0
 14 15  1  0
 15 16  2  0
 16 17  1  0
 17 18  2  0
 18 19  1  0
 14 20  1  0
 11  3  2  0
 20 12  1  0
 10  6  1  0
 19 15  1  0
  4 21  1  0
  5 22  1  0
  7 23  1  0
  8 24  1  0
 13 25  1  0
 13 26  1  0
 14 27  1  0
 16 28  1  0
 18 29  1  0
 19 30  1  0
 20 31  1  0
 20 32  1  0
M  END
>  <Energy>  (982) 
641.99355891626999

>  <compound_id>  (982) 
8697

>  <target_id>  (982) 
1

>  <reference_id>  (982) 
80

>  <inspiration_ids>  (982) 
[80, 107]

>  <energy_score>  (982) 
483.81431829760794

>  <distance_score>  (982) 
13.579820709700227

>  <path>  (982) 
/opt/xchem-fragalysis-2/maxwin/BulkDock/SCRATCH/511020/C8697-P80/C8697-P80.minimised.mol

>  <scratch_subdir>  (982) 
/opt/xchem-fragalysis-2/maxwin/BulkDock/SCRATCH/511020/C8697-P80

>  <fragmenstein_runtime>  (982) 
15.400896549224854

>  <fragmenstein_outcome>  (982) 
too moved

>  <fragmenstein_mode>  (982) 
expansion

>  <fragmenstein_error>  (982) 


$$$$
C8697-P107
     RDKit          3D

 32 35  0  0  0  0  0  0  0  0999 V2000
   -2.8040  -18.5151   27.3326 O   0  0  0  0  0  0  0  0  0  0  0  0
   -3.4576  -17.5091   27.4290 C   0  0  0  0  0  0  0  0  0  0  0  0
   -4.4067  -17.4493   28.6315 C   0  0  0  0  0  0  0  0  0  0  0  0
   -5.7883  -16.9139   28.4065 C   0  0  0  0  0  0  0  0  0  0  0  0
   -6.5094  -16.7379   29.5240 C   0  0  0  0  0  0  0  0  0  0  0  0
   -5.9863  -17.1361   30.7485 N   0  0  0  0  0  0  0  0  0  0  0  0
   -6.4408  -16.9274   32.0228 C   0  0  0  0  0  0  0  0  0  0  0  0
   -5.5921  -17.6489   32.8266 C   0  0  0  0  0  0  0  0  0  0  0  0
   -4.5394  -18.1395   32.1010 N   0  0  0  0  0  0  0  0  0  0  0  0
   -4.7632  -17.7843   30.8522 C   0  0  0  0  0  0  0  0  0  0  0  0
   -3.9450  -17.8904   29.7670 N   0  0  0  0  0  0  0  0  0  0  0  0
   -3.5223  -16.3551   26.5761 N   0  0  0  0  0  0  0  0  0  0  0  0
   -2.8676  -16.0757   25.2196 C   0  0  0  0  0  0  0  0  0  0  0  0
   -2.1022  -14.7175   25.5066 C   0  0  0  0  0  0  0  0  0  0  0  0
   -0.4353  -14.1820   24.6422 C   0  0  0  0  0  0  0  0  0  0  0  0
    0.7124  -13.5413   25.8373 C   0  0  0  0  0  0  0  0  0  0  0  0
    1.8250  -13.0935   25.4449 N   0  0  0  0  0  0  0  0  0  0  0  0
    1.9527  -13.1976   24.1899 C   0  0  0  0  0  0  0  0  0  0  0  0
    0.6116  -14.1533   23.7651 N   0  0  0  0  0  0  0  0  0  0  0  0
   -2.4491  -15.2406   27.0257 C   0  0  0  0  0  0  0  0  0  0  0  0
   -6.1127  -16.6261   27.4179 H   0  0  0  0  0  0  0  0  0  0  0  0
   -7.4843  -16.2741   29.5245 H   0  0  0  0  0  0  0  0  0  0  0  0
   -7.3151  -16.3389   32.2463 H   0  0  0  0  0  0  0  0  0  0  0  0
   -5.6568  -17.8060   33.8949 H   0  0  0  0  0  0  0  0  0  0  0  0
   -2.3334  -17.0008   25.1296 H   0  0  0  0  0  0  0  0  0  0  0  0
   -3.6134  -16.0890   24.4114 H   0  0  0  0  0  0  0  0  0  0  0  0
   -2.5108  -13.6911   25.5550 H   0  0  0  0  0  0  0  0  0  0  0  0
    0.4097  -13.5133   26.8151 H   0  0  0  0  0  0  0  0  0  0  0  0
    2.7846  -13.0402   23.5115 H   0  0  0  0  0  0  0  0  0  0  0  0
    0.4444  -14.3231   22.7648 H   0  0  0  0  0  0  0  0  0  0  0  0
   -3.0157  -14.5322   27.6490 H   0  0  0  0  0  0  0  0  0  0  0  0
   -1.7410  -15.6703   27.7413 H   0  0  0  0  0  0  0  0  0  0  0  0
  1  2  2  0
  2  3  1  0
  3  4  1  0
  4  5  2  0
  5  6  1  0
  6  7  1  0
  7  8  2  0
  8  9  1  0
  9 10  2  0
 10 11  1  0
  2 12  1  0
 12 13  1  0
 13 14  1  0
 14 15  1  0
 15 16  2  0
 16 17  1  0
 17 18  2  0
 18 19  1  0
 14 20  1  0
 11  3  2  0
 20 12  1  0
 10  6  1  0
 19 15  1  0
  4 21  1  0
  5 22  1  0
  7 23  1  0
  8 24  1  0
 13 25  1  0
 13 26  1  0
 14 27  1  0
 16 28  1  0
 18 29  1  0
 19 30  1  0
 20 31  1  0
 20 32  1  0
M  END
>  <Energy>  (983) 
287.23130135776489

>  <compound_id>  (983) 
8697

>  <target_id>  (983) 
1

>  <reference_id>  (983) 
107

>  <inspiration_ids>  (983) 
[80, 107]

>  <energy_score>  (983) 
129.05206073910426

>  <distance_score>  (983) 
13.625754969202209

>  <path>  (983) 
/opt/xchem-fragalysis-2/maxwin/BulkDock/SCRATCH/511020/C8697-P107/C8697-P107.minimised.mol

>  <scratch_subdir>  (983) 
/opt/xchem-fragalysis-2/maxwin/BulkDock/SCRATCH/511020/C8697-P107

>  <fragmenstein_runtime>  (983) 
27.627849102020264

>  <fragmenstein_outcome>  (983) 
too moved

>  <fragmenstein_mode>  (983) 
expansion

>  <fragmenstein_error>  (983) 


$$$$
C8693-P80
     RDKit          3D

 28 30  0  0  0  0  0  0  0  0999 V2000
   -2.9889   -9.3456   19.9228 C   0  0  0  0  0  0  0  0  0  0  0  0
   -3.5779   -9.6671   21.1986 N   0  0  0  0  0  0  0  0  0  0  0  0
   -3.4112   -8.9800   22.3633 C   0  0  0  0  0  0  0  0  0  0  0  0
   -3.9973   -9.6169   23.3666 N   0  0  0  0  0  0  0  0  0  0  0  0
   -4.6743  -10.7036   22.8232 C   0  0  0  0  0  0  0  0  0  0  0  0
   -5.3400  -11.6395   23.6180 N   0  0  0  0  0  0  0  0  0  0  0  0
   -5.9353  -12.9268   23.2819 C   0  0  0  0  0  0  0  0  0  0  0  0
   -6.0739  -13.4729   22.2210 O   0  0  0  0  0  0  0  0  0  0  0  0
   -6.3917  -13.8292   24.4976 C   0  0  0  0  0  0  0  0  0  0  0  0
   -5.5772  -15.0958   24.6854 C   0  0  0  0  0  0  0  0  0  0  0  0
   -6.0000  -15.9636   25.6214 C   0  0  0  0  0  0  0  0  0  0  0  0
   -7.1410  -15.6706   26.3496 N   0  0  0  0  0  0  0  0  0  0  0  0
   -7.7599  -16.3842   27.3473 C   0  0  0  0  0  0  0  0  0  0  0  0
   -8.8815  -15.6583   27.6611 C   0  0  0  0  0  0  0  0  0  0  0  0
   -8.9420  -14.5087   26.9086 N   0  0  0  0  0  0  0  0  0  0  0  0
   -7.8710  -14.4993   26.1314 C   0  0  0  0  0  0  0  0  0  0  0  0
   -7.4644  -13.5552   25.1994 N   0  0  0  0  0  0  0  0  0  0  0  0
   -4.4022  -10.7364   21.4663 C   0  0  0  0  0  0  0  0  0  0  0  0
   -2.1070   -8.7195   20.0800 H   0  0  0  0  0  0  0  0  0  0  0  0
   -3.7336   -8.8104   19.3290 H   0  0  0  0  0  0  0  0  0  0  0  0
   -2.6977  -10.2739   19.4245 H   0  0  0  0  0  0  0  0  0  0  0  0
   -2.8381   -8.0642   22.4396 H   0  0  0  0  0  0  0  0  0  0  0  0
   -5.4693  -11.4625   24.6069 H   0  0  0  0  0  0  0  0  0  0  0  0
   -4.7117  -15.2596   24.0570 H   0  0  0  0  0  0  0  0  0  0  0  0
   -5.4933  -16.8959   25.8359 H   0  0  0  0  0  0  0  0  0  0  0  0
   -7.3627  -17.3130   27.7297 H   0  0  0  0  0  0  0  0  0  0  0  0
   -9.6467  -15.8873   28.3912 H   0  0  0  0  0  0  0  0  0  0  0  0
   -4.6958  -11.4378   20.6965 H   0  0  0  0  0  0  0  0  0  0  0  0
  1  2  1  0
  2  3  1  0
  3  4  2  0
  4  5  1  0
  5  6  1  0
  6  7  1  0
  7  8  2  0
  7  9  1  0
  9 10  1  0
 10 11  2  0
 11 12  1  0
 12 13  1  0
 13 14  2  0
 14 15  1  0
 15 16  2  0
 16 17  1  0
  5 18  2  0
 18  2  1  0
 17  9  2  0
 16 12  1  0
  1 19  1  0
  1 20  1  0
  1 21  1  0
  3 22  1  0
  6 23  1  0
 10 24  1  0
 11 25  1  0
 13 26  1  0
 14 27  1  0
 18 28  1  0
M  END
>  <Energy>  (984) 
27.840419362794705

>  <compound_id>  (984) 
8693

>  <target_id>  (984) 
1

>  <reference_id>  (984) 
80

>  <inspiration_ids>  (984) 
[80, 107]

>  <energy_score>  (984) 
-37.62518697646698

>  <distance_score>  (984) 
14.546971832160883

>  <path>  (984) 
/opt/xchem-fragalysis-2/maxwin/BulkDock/SCRATCH/511020/C8693-P80/C8693-P80.minimised.mol

>  <scratch_subdir>  (984) 
/opt/xchem-fragalysis-2/maxwin/BulkDock/SCRATCH/511020/C8693-P80

>  <fragmenstein_runtime>  (984) 
14.600397109985352

>  <fragmenstein_outcome>  (984) 
too moved

>  <fragmenstein_mode>  (984) 
expansion

>  <fragmenstein_error>  (984) 


$$$$
C8693-P107
     RDKit          3D

 28 30  0  0  0  0  0  0  0  0999 V2000
   -3.6029   -8.6491   20.3901 C   0  0  0  0  0  0  0  0  0  0  0  0
   -3.8572   -9.2365   21.6810 N   0  0  0  0  0  0  0  0  0  0  0  0
   -3.2982   -8.8452   22.8580 C   0  0  0  0  0  0  0  0  0  0  0  0
   -3.6662   -9.6602   23.8334 N   0  0  0  0  0  0  0  0  0  0  0  0
   -4.6110  -10.5356   23.3122 C   0  0  0  0  0  0  0  0  0  0  0  0
   -5.2296  -11.5697   24.0197 N   0  0  0  0  0  0  0  0  0  0  0  0
   -5.0403  -12.0370   25.3827 C   0  0  0  0  0  0  0  0  0  0  0  0
   -4.3610  -11.6034   26.2727 O   0  0  0  0  0  0  0  0  0  0  0  0
   -5.8038  -13.3693   25.7768 C   0  0  0  0  0  0  0  0  0  0  0  0
   -4.9142  -14.4438   26.3761 C   0  0  0  0  0  0  0  0  0  0  0  0
   -5.5220  -15.4930   26.9543 C   0  0  0  0  0  0  0  0  0  0  0  0
   -6.9029  -15.5578   26.9473 N   0  0  0  0  0  0  0  0  0  0  0  0
   -7.7422  -16.4679   27.5414 C   0  0  0  0  0  0  0  0  0  0  0  0
   -9.0072  -16.0332   27.2356 C   0  0  0  0  0  0  0  0  0  0  0  0
   -8.9601  -14.9086   26.4441 N   0  0  0  0  0  0  0  0  0  0  0  0
   -7.6823  -14.5939   26.2994 C   0  0  0  0  0  0  0  0  0  0  0  0
   -7.1083  -13.4847   25.6882 N   0  0  0  0  0  0  0  0  0  0  0  0
   -4.7148  -10.2788   21.9560 C   0  0  0  0  0  0  0  0  0  0  0  0
   -2.5251   -8.5074   20.2754 H   0  0  0  0  0  0  0  0  0  0  0  0
   -4.1231   -7.6894   20.3422 H   0  0  0  0  0  0  0  0  0  0  0  0
   -3.9714   -9.3181   19.6084 H   0  0  0  0  0  0  0  0  0  0  0  0
   -2.6155   -8.0094   22.9499 H   0  0  0  0  0  0  0  0  0  0  0  0
   -5.9416  -12.1338   23.5724 H   0  0  0  0  0  0  0  0  0  0  0  0
   -3.8413  -14.2933   26.3746 H   0  0  0  0  0  0  0  0  0  0  0  0
   -4.9820  -16.2850   27.4584 H   0  0  0  0  0  0  0  0  0  0  0  0
   -7.3744  -17.2944   28.1327 H   0  0  0  0  0  0  0  0  0  0  0  0
   -9.9526  -16.4604   27.5410 H   0  0  0  0  0  0  0  0  0  0  0  0
   -5.2985  -10.7505   21.1781 H   0  0  0  0  0  0  0  0  0  0  0  0
  1  2  1  0
  2  3  1  0
  3  4  2  0
  4  5  1  0
  5  6  1  0
  6  7  1  0
  7  8  2  0
  7  9  1  0
  9 10  1  0
 10 11  2  0
 11 12  1  0
 12 13  1  0
 13 14  2  0
 14 15  1  0
 15 16  2  0
 16 17  1  0
  5 18  2  0
 18  2  1  0
 17  9  2  0
 16 12  1  0
  1 19  1  0
  1 20  1  0
  1 21  1  0
  3 22  1  0
  6 23  1  0
 10 24  1  0
 11 25  1  0
 13 26  1  0
 14 27  1  0
 18 28  1  0
M  END
>  <Energy>  (985) 
33.163972306605686

>  <compound_id>  (985) 
8693

>  <target_id>  (985) 
1

>  <reference_id>  (985) 
107

>  <inspiration_ids>  (985) 
[80, 107]

>  <energy_score>  (985) 
-32.301634032658114

>  <distance_score>  (985) 
14.680979968586186

>  <path>  (985) 
/opt/xchem-fragalysis-2/maxwin/BulkDock/SCRATCH/511020/C8693-P107/C8693-P107.minimised.mol

>  <scratch_subdir>  (985) 
/opt/xchem-fragalysis-2/maxwin/BulkDock/SCRATCH/511020/C8693-P107

>  <fragmenstein_runtime>  (985) 
16.30721116065979

>  <fragmenstein_outcome>  (985) 
too moved

>  <fragmenstein_mode>  (985) 
expansion

>  <fragmenstein_error>  (985) 


$$$$
C8705-P80
     RDKit          3D

 34 36  0  0  0  0  0  0  0  0999 V2000
    2.6368   -6.1058   13.1926 C   0  0  0  0  0  0  0  0  0  0  0  0
    2.4967   -6.0754   14.7151 C   0  0  0  0  0  0  0  0  0  0  0  0
    1.9452   -7.4368   15.2406 C   0  0  0  0  0  0  0  0  0  0  0  0
    1.5118   -7.8783   16.6674 N   0  0  0  0  0  0  0  0  0  0  0  0
    2.1003   -8.4742   17.7960 C   0  0  0  0  0  0  0  0  0  0  0  0
    1.2128   -8.5772   18.8005 N   0  0  0  0  0  0  0  0  0  0  0  0
   -0.1200   -8.4654   18.2678 C   0  0  0  0  0  0  0  0  0  0  0  0
   -1.4290   -8.9036   18.7976 N   0  0  0  0  0  0  0  0  0  0  0  0
   -1.8645   -9.2037   20.1819 C   0  0  0  0  0  0  0  0  0  0  0  0
   -1.2821   -9.0876   21.2324 O   0  0  0  0  0  0  0  0  0  0  0  0
   -3.3636   -9.8068   20.3906 C   0  0  0  0  0  0  0  0  0  0  0  0
   -4.0702   -9.2632   21.6343 C   0  0  0  0  0  0  0  0  0  0  0  0
   -5.2214   -9.8377   22.0271 C   0  0  0  0  0  0  0  0  0  0  0  0
   -5.7304  -10.8971   21.2967 N   0  0  0  0  0  0  0  0  0  0  0  0
   -6.7787  -11.7387   21.5919 C   0  0  0  0  0  0  0  0  0  0  0  0
   -6.7322  -12.7104   20.6253 C   0  0  0  0  0  0  0  0  0  0  0  0
   -5.7052  -12.4622   19.7364 N   0  0  0  0  0  0  0  0  0  0  0  0
   -5.0920  -11.3539   20.1308 C   0  0  0  0  0  0  0  0  0  0  0  0
   -3.8979  -10.7718   19.6657 N   0  0  0  0  0  0  0  0  0  0  0  0
    0.2003   -8.1991   16.9537 C   0  0  0  0  0  0  0  0  0  0  0  0
    3.3264   -6.8959   12.8784 H   0  0  0  0  0  0  0  0  0  0  0  0
    1.6691   -6.2797   12.7114 H   0  0  0  0  0  0  0  0  0  0  0  0
    3.0288   -5.1499   12.8309 H   0  0  0  0  0  0  0  0  0  0  0  0
    3.4919   -5.8578   15.1131 H   0  0  0  0  0  0  0  0  0  0  0  0
    1.8273   -5.2474   14.9598 H   0  0  0  0  0  0  0  0  0  0  0  0
    2.6440   -8.1615   14.8643 H   0  0  0  0  0  0  0  0  0  0  0  0
    1.0195   -7.4988   14.6669 H   0  0  0  0  0  0  0  0  0  0  0  0
    3.1222   -8.7824   17.8293 H   0  0  0  0  0  0  0  0  0  0  0  0
   -2.1444   -9.2002   18.1558 H   0  0  0  0  0  0  0  0  0  0  0  0
   -3.5961   -8.4534   22.1742 H   0  0  0  0  0  0  0  0  0  0  0  0
   -5.7613   -9.5345   22.9151 H   0  0  0  0  0  0  0  0  0  0  0  0
   -7.4180  -11.5900   22.4494 H   0  0  0  0  0  0  0  0  0  0  0  0
   -7.3745  -13.5736   20.5063 H   0  0  0  0  0  0  0  0  0  0  0  0
   -0.2630   -8.2515   16.0335 H   0  0  0  0  0  0  0  0  0  0  0  0
  1  2  1  0
  2  3  1  0
  3  4  1  0
  4  5  1  0
  5  6  2  0
  6  7  1  0
  7  8  1  0
  8  9  1  0
  9 10  2  0
  9 11  1  0
 11 12  1  0
 12 13  2  0
 13 14  1  0
 14 15  1  0
 15 16  2  0
 16 17  1  0
 17 18  2  0
 18 19  1  0
  7 20  2  0
 20  4  1  0
 19 11  2  0
 18 14  1  0
  1 21  1  0
  1 22  1  0
  1 23  1  0
  2 24  1  0
  2 25  1  0
  3 26  1  0
  3 27  1  0
  5 28  1  0
  8 29  1  0
 12 30  1  0
 13 31  1  0
 15 32  1  0
 16 33  1  0
 20 34  1  0
M  END
>  <Energy>  (986) 
97.645326379262073

>  <compound_id>  (986) 
8705

>  <target_id>  (986) 
1

>  <reference_id>  (986) 
80

>  <inspiration_ids>  (986) 
[80, 107]

>  <energy_score>  (986) 
45.05052404442034

>  <distance_score>  (986) 
16.324495385770895

>  <path>  (986) 
/opt/xchem-fragalysis-2/maxwin/BulkDock/SCRATCH/511020/C8705-P80/C8705-P80.minimised.mol

>  <scratch_subdir>  (986) 
/opt/xchem-fragalysis-2/maxwin/BulkDock/SCRATCH/511020/C8705-P80

>  <fragmenstein_runtime>  (986) 
16.685402870178223

>  <fragmenstein_outcome>  (986) 
too moved

>  <fragmenstein_mode>  (986) 
expansion

>  <fragmenstein_error>  (986) 


$$$$
C8705-P107
     RDKit          3D

 34 36  0  0  0  0  0  0  0  0999 V2000
    1.8725  -16.3218   14.2972 C   0  0  0  0  0  0  0  0  0  0  0  0
    1.5895  -16.8978   15.6750 C   0  0  0  0  0  0  0  0  0  0  0  0
    0.7970  -15.9200   16.5383 C   0  0  0  0  0  0  0  0  0  0  0  0
    0.4123  -16.4807   17.8169 N   0  0  0  0  0  0  0  0  0  0  0  0
    1.2424  -16.8873   18.8206 C   0  0  0  0  0  0  0  0  0  0  0  0
    0.5533  -17.4264   19.8113 N   0  0  0  0  0  0  0  0  0  0  0  0
   -0.7718  -17.3795   19.4386 C   0  0  0  0  0  0  0  0  0  0  0  0
   -1.8372  -17.9212   20.1357 N   0  0  0  0  0  0  0  0  0  0  0  0
   -1.8770  -18.6871   21.3596 C   0  0  0  0  0  0  0  0  0  0  0  0
   -1.0064  -18.9829   22.1274 O   0  0  0  0  0  0  0  0  0  0  0  0
   -3.2932  -19.2741   21.6652 C   0  0  0  0  0  0  0  0  0  0  0  0
   -3.3192  -20.7401   22.0404 C   0  0  0  0  0  0  0  0  0  0  0  0
   -4.5322  -21.3045   22.1519 C   0  0  0  0  0  0  0  0  0  0  0  0
   -5.6560  -20.5146   21.9778 N   0  0  0  0  0  0  0  0  0  0  0  0
   -6.9802  -20.8599   21.9224 C   0  0  0  0  0  0  0  0  0  0  0  0
   -7.6566  -19.6671   21.8243 C   0  0  0  0  0  0  0  0  0  0  0  0
   -6.7827  -18.6099   21.7927 N   0  0  0  0  0  0  0  0  0  0  0  0
   -5.5703  -19.1344   21.7863 C   0  0  0  0  0  0  0  0  0  0  0  0
   -4.3570  -18.5170   21.5777 N   0  0  0  0  0  0  0  0  0  0  0  0
   -0.8742  -16.7263   18.2261 C   0  0  0  0  0  0  0  0  0  0  0  0
    2.4618  -15.4028   14.3668 H   0  0  0  0  0  0  0  0  0  0  0  0
    0.9414  -16.0933   13.7688 H   0  0  0  0  0  0  0  0  0  0  0  0
    2.4364  -17.0410   13.6948 H   0  0  0  0  0  0  0  0  0  0  0  0
    2.5387  -17.1499   16.1624 H   0  0  0  0  0  0  0  0  0  0  0  0
    1.0321  -17.8360   15.5648 H   0  0  0  0  0  0  0  0  0  0  0  0
   -0.1218  -15.6227   16.0210 H   0  0  0  0  0  0  0  0  0  0  0  0
    1.3666  -15.0194   16.7594 H   0  0  0  0  0  0  0  0  0  0  0  0
    2.3179  -16.7722   18.7826 H   0  0  0  0  0  0  0  0  0  0  0  0
   -2.7817  -17.8011   19.7895 H   0  0  0  0  0  0  0  0  0  0  0  0
   -2.3827  -21.2707   22.1566 H   0  0  0  0  0  0  0  0  0  0  0  0
   -4.6830  -22.3557   22.3625 H   0  0  0  0  0  0  0  0  0  0  0  0
   -7.3212  -21.8848   21.9723 H   0  0  0  0  0  0  0  0  0  0  0  0
   -8.7279  -19.5140   21.7724 H   0  0  0  0  0  0  0  0  0  0  0  0
   -1.7250  -16.4831   17.6062 H   0  0  0  0  0  0  0  0  0  0  0  0
  1  2  1  0
  2  3  1  0
  3  4  1  0
  4  5  1  0
  5  6  2  0
  6  7  1  0
  7  8  1  0
  8  9  1  0
  9 10  2  0
  9 11  1  0
 11 12  1  0
 12 13  2  0
 13 14  1  0
 14 15  1  0
 15 16  2  0
 16 17  1  0
 17 18  2  0
 18 19  1  0
  7 20  2  0
 20  4  1  0
 19 11  2  0
 18 14  1  0
  1 21  1  0
  1 22  1  0
  1 23  1  0
  2 24  1  0
  2 25  1  0
  3 26  1  0
  3 27  1  0
  5 28  1  0
  8 29  1  0
 12 30  1  0
 13 31  1  0
 15 32  1  0
 16 33  1  0
 20 34  1  0
M  END
>  <Energy>  (987) 
24.095640631387951

>  <compound_id>  (987) 
8705

>  <target_id>  (987) 
1

>  <reference_id>  (987) 
107

>  <inspiration_ids>  (987) 
[80, 107]

>  <energy_score>  (987) 
-28.49916170345361

>  <distance_score>  (987) 
15.072006612840944

>  <path>  (987) 
/opt/xchem-fragalysis-2/maxwin/BulkDock/SCRATCH/511020/C8705-P107/C8705-P107.minimised.mol

>  <scratch_subdir>  (987) 
/opt/xchem-fragalysis-2/maxwin/BulkDock/SCRATCH/511020/C8705-P107

>  <fragmenstein_runtime>  (987) 
19.785637378692627

>  <fragmenstein_outcome>  (987) 
too moved

>  <fragmenstein_mode>  (987) 
expansion

>  <fragmenstein_error>  (987) 


$$$$
C8694-P80
     RDKit          3D

 39 42  0  0  0  0  0  0  0  0999 V2000
    8.3553  -10.9113   25.1391 C   0  0  0  0  0  0  0  0  0  0  0  0
    7.4290  -11.5518   24.3446 C   0  0  0  0  0  0  0  0  0  0  0  0
    6.3816  -10.7008   24.0136 N   0  0  0  0  0  0  0  0  0  0  0  0
    4.8567  -10.9366   22.8454 C   0  0  0  0  0  0  0  0  0  0  0  0
    2.9817  -11.8906   23.2093 C   0  0  0  0  0  0  0  0  0  0  0  0
    2.6652  -13.1521   24.2701 C   0  0  0  0  0  0  0  0  0  0  0  0
    1.1328  -13.4780   25.5110 C   0  0  0  0  0  0  0  0  0  0  0  0
   -0.5437  -14.1259   24.6204 N   0  0  0  0  0  0  0  0  0  0  0  0
   -2.0792  -14.6873   25.3519 C   0  0  0  0  0  0  0  0  0  0  0  0
   -2.4275  -14.9377   26.9666 C   0  0  0  0  0  0  0  0  0  0  0  0
   -3.5553  -15.5128   27.4033 C   0  0  0  0  0  0  0  0  0  0  0  0
   -4.4898  -15.8900   26.4858 N   0  0  0  0  0  0  0  0  0  0  0  0
   -5.7308  -16.4417   26.6788 C   0  0  0  0  0  0  0  0  0  0  0  0
   -6.2584  -16.5292   25.4179 C   0  0  0  0  0  0  0  0  0  0  0  0
   -5.3364  -16.1566   24.4736 N   0  0  0  0  0  0  0  0  0  0  0  0
   -4.2684  -15.7296   25.1288 C   0  0  0  0  0  0  0  0  0  0  0  0
   -3.0906  -15.2169   24.6171 N   0  0  0  0  0  0  0  0  0  0  0  0
   -0.1145  -13.6232   23.2019 C   0  0  0  0  0  0  0  0  0  0  0  0
    0.9719  -11.7518   23.0115 C   0  0  0  0  0  0  0  0  0  0  0  0
    6.7733   -9.5779   24.9017 C   0  0  0  0  0  0  0  0  0  0  0  0
    7.9481   -9.6786   25.4667 N   0  0  0  0  0  0  0  0  0  0  0  0
    9.2959  -11.3124   25.4943 H   0  0  0  0  0  0  0  0  0  0  0  0
    7.5536  -12.5311   23.9974 H   0  0  0  0  0  0  0  0  0  0  0  0
    5.3007  -11.6364   23.5964 H   0  0  0  0  0  0  0  0  0  0  0  0
    4.6432   -9.9495   23.2310 H   0  0  0  0  0  0  0  0  0  0  0  0
    3.2465  -12.4812   22.3298 H   0  0  0  0  0  0  0  0  0  0  0  0
    2.7394  -13.9692   23.5266 H   0  0  0  0  0  0  0  0  0  0  0  0
    3.5556  -13.5442   24.7790 H   0  0  0  0  0  0  0  0  0  0  0  0
    1.3887  -14.0169   26.4369 H   0  0  0  0  0  0  0  0  0  0  0  0
    0.9971  -12.5033   26.0392 H   0  0  0  0  0  0  0  0  0  0  0  0
   -1.6487  -14.7601   27.6971 H   0  0  0  0  0  0  0  0  0  0  0  0
   -3.7554  -15.7113   28.4479 H   0  0  0  0  0  0  0  0  0  0  0  0
   -6.1296  -16.6505   27.6607 H   0  0  0  0  0  0  0  0  0  0  0  0
   -7.2511  -16.8235   25.1191 H   0  0  0  0  0  0  0  0  0  0  0  0
    0.7607  -14.2463   23.4730 H   0  0  0  0  0  0  0  0  0  0  0  0
   -0.3399  -14.2753   22.3857 H   0  0  0  0  0  0  0  0  0  0  0  0
    0.2620  -10.9078   22.9880 H   0  0  0  0  0  0  0  0  0  0  0  0
    0.9452  -11.2750   22.0488 H   0  0  0  0  0  0  0  0  0  0  0  0
    6.1250   -8.7149   25.0382 H   0  0  0  0  0  0  0  0  0  0  0  0
  1  2  2  0
  2  3  1  0
  3  4  1  0
  4  5  1  0
  5  6  1  0
  6  7  1  0
  7  8  1  0
  8  9  1  0
  9 10  1  0
 10 11  2  0
 11 12  1  0
 12 13  1  0
 13 14  2  0
 14 15  1  0
 15 16  2  0
 16 17  1  0
  8 18  1  0
 18 19  1  0
  3 20  1  0
 20 21  2  0
 21  1  1  0
 19  5  1  0
 17  9  2  0
 16 12  1  0
  1 22  1  0
  2 23  1  0
  4 24  1  0
  4 25  1  0
  5 26  1  0
  6 27  1  0
  6 28  1  0
  7 29  1  0
  7 30  1  0
 10 31  1  0
 11 32  1  0
 13 33  1  0
 14 34  1  0
 18 35  1  0
 18 36  1  0
 19 37  1  0
 19 38  1  0
 20 39  1  0
M  END
>  <Energy>  (988) 
747.03650499395553

>  <compound_id>  (988) 
8694

>  <target_id>  (988) 
1

>  <reference_id>  (988) 
80

>  <inspiration_ids>  (988) 
[80, 107]

>  <energy_score>  (988) 
709.6424117296708

>  <distance_score>  (988) 
12.799182043519021

>  <path>  (988) 
/opt/xchem-fragalysis-2/maxwin/BulkDock/SCRATCH/511020/C8694-P80/C8694-P80.minimised.mol

>  <scratch_subdir>  (988) 
/opt/xchem-fragalysis-2/maxwin/BulkDock/SCRATCH/511020/C8694-P80

>  <fragmenstein_runtime>  (988) 
20.801776885986328

>  <fragmenstein_outcome>  (988) 
too moved

>  <fragmenstein_mode>  (988) 
expansion

>  <fragmenstein_error>  (988) 


$$$$
C8694-P107
     RDKit          3D

 39 42  0  0  0  0  0  0  0  0999 V2000
   -1.8939   -9.7050   20.6398 C   0  0  0  0  0  0  0  0  0  0  0  0
   -1.9678  -11.0478   20.3624 C   0  0  0  0  0  0  0  0  0  0  0  0
   -2.0645  -11.1824   19.0130 N   0  0  0  0  0  0  0  0  0  0  0  0
   -2.5443  -12.3465   18.3016 C   0  0  0  0  0  0  0  0  0  0  0  0
   -2.0942  -14.0523   17.8363 C   0  0  0  0  0  0  0  0  0  0  0  0
   -1.9624  -15.3847   19.1479 C   0  0  0  0  0  0  0  0  0  0  0  0
   -2.6627  -16.8234   19.1489 C   0  0  0  0  0  0  0  0  0  0  0  0
   -3.8201  -17.1979   18.2389 N   0  0  0  0  0  0  0  0  0  0  0  0
   -4.7861  -18.0799   18.9286 C   0  0  0  0  0  0  0  0  0  0  0  0
   -4.2336  -19.3787   19.5428 C   0  0  0  0  0  0  0  0  0  0  0  0
   -4.9922  -20.0736   20.4049 C   0  0  0  0  0  0  0  0  0  0  0  0
   -6.2578  -19.6125   20.6979 N   0  0  0  0  0  0  0  0  0  0  0  0
   -7.1987  -20.1133   21.5628 C   0  0  0  0  0  0  0  0  0  0  0  0
   -8.2413  -19.2231   21.5072 C   0  0  0  0  0  0  0  0  0  0  0  0
   -7.9679  -18.2122   20.6179 N   0  0  0  0  0  0  0  0  0  0  0  0
   -6.7787  -18.4731   20.0909 C   0  0  0  0  0  0  0  0  0  0  0  0
   -6.0478  -17.7535   19.1568 N   0  0  0  0  0  0  0  0  0  0  0  0
   -4.2107  -16.2903   17.0003 C   0  0  0  0  0  0  0  0  0  0  0  0
   -3.1338  -14.8784   16.5693 C   0  0  0  0  0  0  0  0  0  0  0  0
   -2.2512   -9.8801   18.5597 C   0  0  0  0  0  0  0  0  0  0  0  0
   -2.0962   -8.9865   19.5025 N   0  0  0  0  0  0  0  0  0  0  0  0
   -1.7420   -9.2182   21.5924 H   0  0  0  0  0  0  0  0  0  0  0  0
   -1.9174  -11.9185   20.9588 H   0  0  0  0  0  0  0  0  0  0  0  0
   -2.4387  -11.9567   17.3425 H   0  0  0  0  0  0  0  0  0  0  0  0
   -3.5924  -12.1639   18.5036 H   0  0  0  0  0  0  0  0  0  0  0  0
   -1.1796  -13.7054   17.3817 H   0  0  0  0  0  0  0  0  0  0  0  0
   -2.2013  -14.9677   20.1304 H   0  0  0  0  0  0  0  0  0  0  0  0
   -0.9650  -15.6017   19.4144 H   0  0  0  0  0  0  0  0  0  0  0  0
   -1.9038  -17.6087   19.0369 H   0  0  0  0  0  0  0  0  0  0  0  0
   -3.0119  -16.9825   20.1715 H   0  0  0  0  0  0  0  0  0  0  0  0
   -3.2365  -19.6828   19.2535 H   0  0  0  0  0  0  0  0  0  0  0  0
   -4.6617  -20.9865   20.8820 H   0  0  0  0  0  0  0  0  0  0  0  0
   -7.0429  -21.0296   22.1109 H   0  0  0  0  0  0  0  0  0  0  0  0
   -9.1823  -19.2542   22.0387 H   0  0  0  0  0  0  0  0  0  0  0  0
   -5.2147  -15.8799   17.1673 H   0  0  0  0  0  0  0  0  0  0  0  0
   -4.2995  -16.9223   16.1078 H   0  0  0  0  0  0  0  0  0  0  0  0
   -2.5693  -15.0683   15.6619 H   0  0  0  0  0  0  0  0  0  0  0  0
   -3.9054  -14.1872   16.3000 H   0  0  0  0  0  0  0  0  0  0  0  0
   -2.5624   -9.6412   17.5596 H   0  0  0  0  0  0  0  0  0  0  0  0
  1  2  2  0
  2  3  1  0
  3  4  1  0
  4  5  1  0
  5  6  1  0
  6  7  1  0
  7  8  1  0
  8  9  1  0
  9 10  1  0
 10 11  2  0
 11 12  1  0
 12 13  1  0
 13 14  2  0
 14 15  1  0
 15 16  2  0
 16 17  1  0
  8 18  1  0
 18 19  1  0
  3 20  1  0
 20 21  2  0
 21  1  1  0
 19  5  1  0
 17  9  2  0
 16 12  1  0
  1 22  1  0
  2 23  1  0
  4 24  1  0
  4 25  1  0
  5 26  1  0
  6 27  1  0
  6 28  1  0
  7 29  1  0
  7 30  1  0
 10 31  1  0
 11 32  1  0
 13 33  1  0
 14 34  1  0
 18 35  1  0
 18 36  1  0
 19 37  1  0
 19 38  1  0
 20 39  1  0
M  END
>  <Energy>  (989) 
183.73062854644388

>  <compound_id>  (989) 
8694

>  <target_id>  (989) 
1

>  <reference_id>  (989) 
107

>  <inspiration_ids>  (989) 
[80, 107]

>  <energy_score>  (989) 
146.33653528215507

>  <distance_score>  (989) 
14.422782748579053

>  <path>  (989) 
/opt/xchem-fragalysis-2/maxwin/BulkDock/SCRATCH/511020/C8694-P107/C8694-P107.minimised.mol

>  <scratch_subdir>  (989) 
/opt/xchem-fragalysis-2/maxwin/BulkDock/SCRATCH/511020/C8694-P107

>  <fragmenstein_runtime>  (989) 
23.7615065574646

>  <fragmenstein_outcome>  (989) 
too moved

>  <fragmenstein_mode>  (989) 
expansion

>  <fragmenstein_error>  (989) 


$$$$
C8706-P80
     RDKit          3D

 37 39  0  0  0  0  0  0  0  0999 V2000
    4.9504  -20.9900   26.4293 C   0  0  0  0  0  0  0  0  0  0  0  0
    4.4205  -19.6377   26.1778 O   0  0  0  0  0  0  0  0  0  0  0  0
    3.6840  -19.3048   25.0933 C   0  0  0  0  0  0  0  0  0  0  0  0
    3.5173  -20.1705   24.2698 O   0  0  0  0  0  0  0  0  0  0  0  0
    3.0642  -17.9100   24.5881 C   0  0  0  0  0  0  0  0  0  0  0  0
    4.4248  -16.2982   24.1983 C   0  0  0  0  0  0  0  0  0  0  0  0
    5.3098  -14.7002   23.6462 C   0  0  0  0  0  0  0  0  0  0  0  0
    6.4803  -13.0036   24.2572 C   0  0  0  0  0  0  0  0  0  0  0  0
    7.0146  -11.9038   22.8689 N   0  0  0  0  0  0  0  0  0  0  0  0
    6.4871  -12.6288   21.2346 C   0  0  0  0  0  0  0  0  0  0  0  0
    5.4972  -14.0131   21.5350 N   0  0  0  0  0  0  0  0  0  0  0  0
    1.1741  -18.5826   24.8548 N   0  0  0  0  0  0  0  0  0  0  0  0
   -0.0389  -18.3755   26.3504 C   0  0  0  0  0  0  0  0  0  0  0  0
    0.3131  -17.7129   27.2844 O   0  0  0  0  0  0  0  0  0  0  0  0
   -1.6108  -19.1102   26.7315 C   0  0  0  0  0  0  0  0  0  0  0  0
   -2.9873  -18.5550   26.5325 C   0  0  0  0  0  0  0  0  0  0  0  0
   -4.0061  -19.4414   26.6884 C   0  0  0  0  0  0  0  0  0  0  0  0
   -3.7353  -20.7014   27.2227 N   0  0  0  0  0  0  0  0  0  0  0  0
   -4.3505  -21.9249   27.1932 C   0  0  0  0  0  0  0  0  0  0  0  0
   -3.5317  -22.7764   27.8988 C   0  0  0  0  0  0  0  0  0  0  0  0
   -2.4593  -22.1141   28.3878 N   0  0  0  0  0  0  0  0  0  0  0  0
   -2.5378  -20.9148   27.8628 C   0  0  0  0  0  0  0  0  0  0  0  0
   -1.5083  -20.0763   27.6395 N   0  0  0  0  0  0  0  0  0  0  0  0
    5.9524  -21.1009   26.0328 H   0  0  0  0  0  0  0  0  0  0  0  0
    4.3063  -21.7843   26.0448 H   0  0  0  0  0  0  0  0  0  0  0  0
    5.0136  -21.1010   27.5165 H   0  0  0  0  0  0  0  0  0  0  0  0
    3.1635  -18.1437   23.5497 H   0  0  0  0  0  0  0  0  0  0  0  0
    5.4581  -16.6469   24.2209 H   0  0  0  0  0  0  0  0  0  0  0  0
    4.2769  -15.5374   25.0381 H   0  0  0  0  0  0  0  0  0  0  0  0
    6.5364  -12.5035   25.2376 H   0  0  0  0  0  0  0  0  0  0  0  0
    6.9025  -10.9097   22.9813 H   0  0  0  0  0  0  0  0  0  0  0  0
    6.3641  -11.8967   20.4442 H   0  0  0  0  0  0  0  0  0  0  0  0
    0.6980  -19.0982   24.1152 H   0  0  0  0  0  0  0  0  0  0  0  0
   -3.0991  -17.5105   26.2796 H   0  0  0  0  0  0  0  0  0  0  0  0
   -5.0348  -19.2031   26.4636 H   0  0  0  0  0  0  0  0  0  0  0  0
   -5.2413  -22.1611   26.6527 H   0  0  0  0  0  0  0  0  0  0  0  0
   -3.6549  -23.8313   28.0918 H   0  0  0  0  0  0  0  0  0  0  0  0
  1  2  1  0
  2  3  1  0
  3  4  2  0
  3  5  1  0
  5  6  1  0
  6  7  1  0
  7  8  2  0
  8  9  1  0
  9 10  1  0
 10 11  2  0
  5 12  1  0
 12 13  1  0
 13 14  2  0
 13 15  1  0
 15 16  1  0
 16 17  2  0
 17 18  1  0
 18 19  1  0
 19 20  2  0
 20 21  1  0
 21 22  2  0
 22 23  1  0
 11  7  1  0
 23 15  2  0
 22 18  1  0
  1 24  1  0
  1 25  1  0
  1 26  1  0
  5 27  1  0
  6 28  1  0
  6 29  1  0
  8 30  1  0
  9 31  1  0
 10 32  1  0
 12 33  1  0
 16 34  1  0
 17 35  1  0
 19 36  1  0
 20 37  1  0
M  END
>  <Energy>  (990) 
1326.6883394770364

>  <compound_id>  (990) 
8706

>  <target_id>  (990) 
1

>  <reference_id>  (990) 
80

>  <inspiration_ids>  (990) 
[80, 107]

>  <energy_score>  (990) 
1225.5721534019287

>  <distance_score>  (990) 
12.398758894045677

>  <path>  (990) 
/opt/xchem-fragalysis-2/maxwin/BulkDock/SCRATCH/511020/C8706-P80/C8706-P80.minimised.mol

>  <scratch_subdir>  (990) 
/opt/xchem-fragalysis-2/maxwin/BulkDock/SCRATCH/511020/C8706-P80

>  <fragmenstein_runtime>  (990) 
29.290616512298584

>  <fragmenstein_outcome>  (990) 
too moved

>  <fragmenstein_mode>  (990) 
expansion

>  <fragmenstein_error>  (990) 


$$$$
C8706-P107
     RDKit          3D

 37 39  0  0  0  0  0  0  0  0999 V2000
   -3.0945  -20.2332   11.8217 C   0  0  0  0  0  0  0  0  0  0  0  0
   -2.5082  -20.2795   13.1220 O   0  0  0  0  0  0  0  0  0  0  0  0
   -1.1556  -20.4508   13.1235 C   0  0  0  0  0  0  0  0  0  0  0  0
   -0.4692  -20.5073   12.1088 O   0  0  0  0  0  0  0  0  0  0  0  0
   -0.5814  -20.4961   14.5456 C   0  0  0  0  0  0  0  0  0  0  0  0
    0.2733  -19.2074   14.7660 C   0  0  0  0  0  0  0  0  0  0  0  0
    1.4829  -18.5873   14.0234 C   0  0  0  0  0  0  0  0  0  0  0  0
    1.4755  -17.7869   12.8886 C   0  0  0  0  0  0  0  0  0  0  0  0
    2.6649  -17.0991   12.8724 N   0  0  0  0  0  0  0  0  0  0  0  0
    3.3729  -17.4875   13.9693 C   0  0  0  0  0  0  0  0  0  0  0  0
    2.6977  -18.3635   14.6846 N   0  0  0  0  0  0  0  0  0  0  0  0
   -1.7255  -20.6469   15.6257 N   0  0  0  0  0  0  0  0  0  0  0  0
   -2.6146  -21.7734   15.9332 C   0  0  0  0  0  0  0  0  0  0  0  0
   -2.7479  -22.8343   15.3866 O   0  0  0  0  0  0  0  0  0  0  0  0
   -3.5294  -21.6760   17.3127 C   0  0  0  0  0  0  0  0  0  0  0  0
   -4.0144  -23.0409   17.8175 C   0  0  0  0  0  0  0  0  0  0  0  0
   -4.7081  -23.0890   18.9667 C   0  0  0  0  0  0  0  0  0  0  0  0
   -4.9656  -21.9150   19.6457 N   0  0  0  0  0  0  0  0  0  0  0  0
   -5.6392  -21.7174   20.8287 C   0  0  0  0  0  0  0  0  0  0  0  0
   -5.5987  -20.3627   21.0356 C   0  0  0  0  0  0  0  0  0  0  0  0
   -4.9158  -19.7358   20.0146 N   0  0  0  0  0  0  0  0  0  0  0  0
   -4.5275  -20.6760   19.1614 C   0  0  0  0  0  0  0  0  0  0  0  0
   -3.7949  -20.5650   17.9698 N   0  0  0  0  0  0  0  0  0  0  0  0
   -4.1759  -20.1243   11.9413 H   0  0  0  0  0  0  0  0  0  0  0  0
   -2.8985  -21.1625   11.2778 H   0  0  0  0  0  0  0  0  0  0  0  0
   -2.7189  -19.3697   11.2639 H   0  0  0  0  0  0  0  0  0  0  0  0
    0.0199  -21.4067   14.6338 H   0  0  0  0  0  0  0  0  0  0  0  0
   -0.5113  -18.4671   14.5758 H   0  0  0  0  0  0  0  0  0  0  0  0
    0.5560  -19.2358   15.8261 H   0  0  0  0  0  0  0  0  0  0  0  0
    0.7043  -17.5916   12.1563 H   0  0  0  0  0  0  0  0  0  0  0  0
    2.9502  -16.4217   12.1789 H   0  0  0  0  0  0  0  0  0  0  0  0
    4.3571  -17.1059   14.1980 H   0  0  0  0  0  0  0  0  0  0  0  0
   -1.9404  -19.8725   16.2520 H   0  0  0  0  0  0  0  0  0  0  0  0
   -3.7795  -23.9236   17.2355 H   0  0  0  0  0  0  0  0  0  0  0  0
   -5.0844  -24.0104   19.3924 H   0  0  0  0  0  0  0  0  0  0  0  0
   -6.0792  -22.5307   21.3875 H   0  0  0  0  0  0  0  0  0  0  0  0
   -6.0214  -19.7961   21.8543 H   0  0  0  0  0  0  0  0  0  0  0  0
  1  2  1  0
  2  3  1  0
  3  4  2  0
  3  5  1  0
  5  6  1  0
  6  7  1  0
  7  8  2  0
  8  9  1  0
  9 10  1  0
 10 11  2  0
  5 12  1  0
 12 13  1  0
 13 14  2  0
 13 15  1  0
 15 16  1  0
 16 17  2  0
 17 18  1  0
 18 19  1  0
 19 20  2  0
 20 21  1  0
 21 22  2  0
 22 23  1  0
 11  7  1  0
 23 15  2  0
 22 18  1  0
  1 24  1  0
  1 25  1  0
  1 26  1  0
  5 27  1  0
  6 28  1  0
  6 29  1  0
  8 30  1  0
  9 31  1  0
 10 32  1  0
 12 33  1  0
 16 34  1  0
 17 35  1  0
 19 36  1  0
 20 37  1  0
M  END
>  <Energy>  (991) 
107.52680644075298

>  <compound_id>  (991) 
8706

>  <target_id>  (991) 
1

>  <reference_id>  (991) 
107

>  <inspiration_ids>  (991) 
[80, 107]

>  <energy_score>  (991) 
6.410620365611635

>  <distance_score>  (991) 
15.921223079434737

>  <path>  (991) 
/opt/xchem-fragalysis-2/maxwin/BulkDock/SCRATCH/511020/C8706-P107/C8706-P107.minimised.mol

>  <scratch_subdir>  (991) 
/opt/xchem-fragalysis-2/maxwin/BulkDock/SCRATCH/511020/C8706-P107

>  <fragmenstein_runtime>  (991) 
35.12222623825073

>  <fragmenstein_outcome>  (991) 
too moved

>  <fragmenstein_mode>  (991) 
expansion

>  <fragmenstein_error>  (991) 


$$$$
C8707-P80
     RDKit          3D

 37 39  0  0  0  0  0  0  0  0999 V2000
    0.4944   -5.0378   29.9728 C   0  0  0  0  0  0  0  0  0  0  0  0
    0.3636   -6.2795   29.2721 O   0  0  0  0  0  0  0  0  0  0  0  0
    0.0427   -6.1631   27.9575 C   0  0  0  0  0  0  0  0  0  0  0  0
   -0.0724   -5.0951   27.3814 O   0  0  0  0  0  0  0  0  0  0  0  0
   -0.2673   -7.5210   27.3062 C   0  0  0  0  0  0  0  0  0  0  0  0
   -0.9111   -7.3334   25.6576 C   0  0  0  0  0  0  0  0  0  0  0  0
   -0.5278   -7.5384   24.2331 N   0  0  0  0  0  0  0  0  0  0  0  0
    0.5145   -7.0741   23.5191 C   0  0  0  0  0  0  0  0  0  0  0  0
    0.4893   -7.7087   22.2817 C   0  0  0  0  0  0  0  0  0  0  0  0
   -0.5932   -8.4514   22.0980 N   0  0  0  0  0  0  0  0  0  0  0  0
   -1.2883   -8.1429   23.1579 C   0  0  0  0  0  0  0  0  0  0  0  0
   -0.1432   -8.9192   28.1937 N   0  0  0  0  0  0  0  0  0  0  0  0
   -0.2957   -9.1617   29.6703 C   0  0  0  0  0  0  0  0  0  0  0  0
   -0.4624   -8.3851   30.5745 O   0  0  0  0  0  0  0  0  0  0  0  0
   -0.3827  -10.7030   30.2349 C   0  0  0  0  0  0  0  0  0  0  0  0
   -1.5636  -10.8620   31.2214 C   0  0  0  0  0  0  0  0  0  0  0  0
   -1.9556  -12.0888   31.5894 C   0  0  0  0  0  0  0  0  0  0  0  0
   -1.2117  -13.1629   31.1659 N   0  0  0  0  0  0  0  0  0  0  0  0
   -1.4472  -14.5018   31.3423 C   0  0  0  0  0  0  0  0  0  0  0  0
   -0.4072  -15.1218   30.7013 C   0  0  0  0  0  0  0  0  0  0  0  0
    0.4561  -14.1921   30.1556 N   0  0  0  0  0  0  0  0  0  0  0  0
   -0.0222  -12.9898   30.4363 C   0  0  0  0  0  0  0  0  0  0  0  0
    0.3932  -11.7225   29.9495 N   0  0  0  0  0  0  0  0  0  0  0  0
   -0.4545   -4.4927   29.9579 H   0  0  0  0  0  0  0  0  0  0  0  0
    1.2963   -4.4316   29.5405 H   0  0  0  0  0  0  0  0  0  0  0  0
    0.7501   -5.2626   31.0117 H   0  0  0  0  0  0  0  0  0  0  0  0
   -1.2638   -7.3328   27.7386 H   0  0  0  0  0  0  0  0  0  0  0  0
   -1.3031   -6.3154   25.6373 H   0  0  0  0  0  0  0  0  0  0  0  0
   -1.7547   -7.9970   25.7219 H   0  0  0  0  0  0  0  0  0  0  0  0
    1.0805   -6.2298   23.8459 H   0  0  0  0  0  0  0  0  0  0  0  0
    1.0666   -7.4918   21.4176 H   0  0  0  0  0  0  0  0  0  0  0  0
   -2.2848   -8.5323   23.2159 H   0  0  0  0  0  0  0  0  0  0  0  0
   -0.1018   -9.8077   27.7146 H   0  0  0  0  0  0  0  0  0  0  0  0
   -2.0401   -9.9756   31.6170 H   0  0  0  0  0  0  0  0  0  0  0  0
   -2.7969  -12.2819   32.2427 H   0  0  0  0  0  0  0  0  0  0  0  0
   -2.3050  -14.8815   31.8782 H   0  0  0  0  0  0  0  0  0  0  0  0
   -0.2203  -16.1834   30.5978 H   0  0  0  0  0  0  0  0  0  0  0  0
  1  2  1  0
  2  3  1  0
  3  4  2  0
  3  5  1  0
  5  6  1  0
  6  7  1  0
  7  8  1  0
  8  9  2  0
  9 10  1  0
 10 11  2  0
  5 12  1  0
 12 13  1  0
 13 14  2  0
 13 15  1  0
 15 16  1  0
 16 17  2  0
 17 18  1  0
 18 19  1  0
 19 20  2  0
 20 21  1  0
 21 22  2  0
 22 23  1  0
 11  7  1  0
 23 15  2  0
 22 18  1  0
  1 24  1  0
  1 25  1  0
  1 26  1  0
  5 27  1  0
  6 28  1  0
  6 29  1  0
  8 30  1  0
  9 31  1  0
 11 32  1  0
 12 33  1  0
 16 34  1  0
 17 35  1  0
 19 36  1  0
 20 37  1  0
M  END
>  <Energy>  (992) 
193.20460891473692

>  <compound_id>  (992) 
8707

>  <target_id>  (992) 
1

>  <reference_id>  (992) 
80

>  <inspiration_ids>  (992) 
[80, 107]

>  <energy_score>  (992) 
94.02757481524918

>  <distance_score>  (992) 
15.745471509786272

>  <path>  (992) 
/opt/xchem-fragalysis-2/maxwin/BulkDock/SCRATCH/511020/C8707-P80/C8707-P80.minimised.mol

>  <scratch_subdir>  (992) 
/opt/xchem-fragalysis-2/maxwin/BulkDock/SCRATCH/511020/C8707-P80

>  <fragmenstein_runtime>  (992) 
34.8453950881958

>  <fragmenstein_outcome>  (992) 
too moved

>  <fragmenstein_mode>  (992) 
expansion

>  <fragmenstein_error>  (992) 


$$$$
C8707-P107
     RDKit          3D

 37 39  0  0  0  0  0  0  0  0999 V2000
   -8.2535  -12.3724   17.7941 C   0  0  0  0  0  0  0  0  0  0  0  0
   -7.3266  -12.9638   18.7092 O   0  0  0  0  0  0  0  0  0  0  0  0
   -6.1284  -13.2916   18.1513 C   0  0  0  0  0  0  0  0  0  0  0  0
   -5.8083  -13.0748   16.9921 O   0  0  0  0  0  0  0  0  0  0  0  0
   -5.2158  -13.9681   19.1848 C   0  0  0  0  0  0  0  0  0  0  0  0
   -3.6926  -13.4985   19.1113 C   0  0  0  0  0  0  0  0  0  0  0  0
   -3.2657  -12.1023   18.9742 N   0  0  0  0  0  0  0  0  0  0  0  0
   -2.5262  -11.3442   19.8407 C   0  0  0  0  0  0  0  0  0  0  0  0
   -2.2670  -10.1509   19.2052 C   0  0  0  0  0  0  0  0  0  0  0  0
   -2.6958  -10.2025   17.9180 N   0  0  0  0  0  0  0  0  0  0  0  0
   -3.3056  -11.3693   17.8193 C   0  0  0  0  0  0  0  0  0  0  0  0
   -5.9423  -14.2949   20.6022 N   0  0  0  0  0  0  0  0  0  0  0  0
   -6.3304  -15.1149   21.2188 C   0  0  0  0  0  0  0  0  0  0  0  0
   -6.1597  -16.3904   20.2474 O   0  0  0  0  0  0  0  0  0  0  0  0
   -7.0091  -15.4772   22.5237 C   0  0  0  0  0  0  0  0  0  0  0  0
   -8.4234  -15.9939   22.3962 C   0  0  0  0  0  0  0  0  0  0  0  0
   -9.0770  -16.2469   23.5432 C   0  0  0  0  0  0  0  0  0  0  0  0
   -8.4150  -16.0807   24.7493 N   0  0  0  0  0  0  0  0  0  0  0  0
   -8.8690  -16.2088   26.0393 C   0  0  0  0  0  0  0  0  0  0  0  0
   -7.7538  -16.0697   26.8276 C   0  0  0  0  0  0  0  0  0  0  0  0
   -6.6539  -15.7779   26.0563 N   0  0  0  0  0  0  0  0  0  0  0  0
   -7.0682  -15.7223   24.8031 C   0  0  0  0  0  0  0  0  0  0  0  0
   -6.3720  -15.3715   23.6621 N   0  0  0  0  0  0  0  0  0  0  0  0
   -8.5167  -13.0860   17.0073 H   0  0  0  0  0  0  0  0  0  0  0  0
   -7.8403  -11.4552   17.3634 H   0  0  0  0  0  0  0  0  0  0  0  0
   -9.1598  -12.1166   18.3497 H   0  0  0  0  0  0  0  0  0  0  0  0
   -5.1528  -14.9868   18.7737 H   0  0  0  0  0  0  0  0  0  0  0  0
   -3.2710  -13.9749   18.2128 H   0  0  0  0  0  0  0  0  0  0  0  0
   -3.1312  -13.9303   19.9434 H   0  0  0  0  0  0  0  0  0  0  0  0
   -2.2159  -11.6721   20.8090 H   0  0  0  0  0  0  0  0  0  0  0  0
   -1.7417   -9.2917   19.5988 H   0  0  0  0  0  0  0  0  0  0  0  0
   -3.8180  -11.7238   16.9350 H   0  0  0  0  0  0  0  0  0  0  0  0
   -5.6479  -13.3584   20.4269 H   0  0  0  0  0  0  0  0  0  0  0  0
   -8.8542  -16.1098   21.4096 H   0  0  0  0  0  0  0  0  0  0  0  0
  -10.1067  -16.5771   23.5752 H   0  0  0  0  0  0  0  0  0  0  0  0
   -9.9027  -16.4051   26.2748 H   0  0  0  0  0  0  0  0  0  0  0  0
   -7.6783  -16.1413   27.9057 H   0  0  0  0  0  0  0  0  0  0  0  0
  1  2  1  0
  2  3  1  0
  3  4  2  0
  3  5  1  0
  5  6  1  0
  6  7  1  0
  7  8  1  0
  8  9  2  0
  9 10  1  0
 10 11  2  0
  5 12  1  0
 12 13  1  0
 13 14  2  0
 13 15  1  0
 15 16  1  0
 16 17  2  0
 17 18  1  0
 18 19  1  0
 19 20  2  0
 20 21  1  0
 21 22  2  0
 22 23  1  0
 11  7  1  0
 23 15  2  0
 22 18  1  0
  1 24  1  0
  1 25  1  0
  1 26  1  0
  5 27  1  0
  6 28  1  0
  6 29  1  0
  8 30  1  0
  9 31  1  0
 11 32  1  0
 12 33  1  0
 16 34  1  0
 17 35  1  0
 19 36  1  0
 20 37  1  0
M  END
>  <Energy>  (993) 
299.04031852688132

>  <compound_id>  (993) 
8707

>  <target_id>  (993) 
1

>  <reference_id>  (993) 
107

>  <inspiration_ids>  (993) 
[80, 107]

>  <energy_score>  (993) 
199.86328442738426

>  <distance_score>  (993) 
13.704318089480772

>  <path>  (993) 
/opt/xchem-fragalysis-2/maxwin/BulkDock/SCRATCH/511020/C8707-P107/C8707-P107.minimised.mol

>  <scratch_subdir>  (993) 
/opt/xchem-fragalysis-2/maxwin/BulkDock/SCRATCH/511020/C8707-P107

>  <fragmenstein_runtime>  (993) 
32.464892625808716

>  <fragmenstein_outcome>  (993) 
too moved

>  <fragmenstein_mode>  (993) 
expansion

>  <fragmenstein_error>  (993) 


$$$$
C8664-P80
     RDKit          3D

 35 37  0  0  0  0  0  0  0  0999 V2000
   -6.2829  -11.7542   19.6358 C   0  0  0  0  0  0  0  0  0  0  0  0
   -6.1970  -13.2723   19.6829 C   0  0  0  0  0  0  0  0  0  0  0  0
   -4.8678  -13.8415   19.5445 N   0  0  0  0  0  0  0  0  0  0  0  0
   -3.7606  -13.2286   19.0135 C   0  0  0  0  0  0  0  0  0  0  0  0
   -2.7327  -14.0374   19.0117 N   0  0  0  0  0  0  0  0  0  0  0  0
   -3.1787  -15.2101   19.5697 C   0  0  0  0  0  0  0  0  0  0  0  0
   -4.5231  -15.1422   19.9190 C   0  0  0  0  0  0  0  0  0  0  0  0
   -5.5070  -16.2331   20.4189 C   0  0  0  0  0  0  0  0  0  0  0  0
   -5.8857  -16.4098   21.8943 N   0  0  0  0  0  0  0  0  0  0  0  0
   -4.7039  -16.7440   22.7127 C   0  0  0  0  0  0  0  0  0  0  0  0
   -7.1286  -17.0478   22.2599 C   0  0  0  0  0  0  0  0  0  0  0  0
   -7.6919  -18.0534   21.5569 C   0  0  0  0  0  0  0  0  0  0  0  0
   -9.0175  -18.5598   22.0118 C   0  0  0  0  0  0  0  0  0  0  0  0
   -9.7252  -18.1042   22.9958 N   0  0  0  0  0  0  0  0  0  0  0  0
   -9.1560  -17.0822   23.6976 C   0  0  0  0  0  0  0  0  0  0  0  0
   -9.6502  -16.4802   24.7633 N   0  0  0  0  0  0  0  0  0  0  0  0
   -8.6679  -15.6431   25.2092 C   0  0  0  0  0  0  0  0  0  0  0  0
   -7.5734  -15.6881   24.3787 C   0  0  0  0  0  0  0  0  0  0  0  0
   -7.8707  -16.6056   23.3958 N   0  0  0  0  0  0  0  0  0  0  0  0
   -5.9782  -11.3675   18.6579 H   0  0  0  0  0  0  0  0  0  0  0  0
   -5.6465  -11.2950   20.3986 H   0  0  0  0  0  0  0  0  0  0  0  0
   -7.3135  -11.4311   19.8140 H   0  0  0  0  0  0  0  0  0  0  0  0
   -6.8068  -13.7064   18.8828 H   0  0  0  0  0  0  0  0  0  0  0  0
   -6.5938  -13.6163   20.6448 H   0  0  0  0  0  0  0  0  0  0  0  0
   -3.7541  -12.2126   18.6421 H   0  0  0  0  0  0  0  0  0  0  0  0
   -2.5190  -16.0639   19.6621 H   0  0  0  0  0  0  0  0  0  0  0  0
   -5.1121  -17.1977   20.0705 H   0  0  0  0  0  0  0  0  0  0  0  0
   -6.4408  -16.0774   19.8620 H   0  0  0  0  0  0  0  0  0  0  0  0
   -4.9444  -16.7556   23.7801 H   0  0  0  0  0  0  0  0  0  0  0  0
   -4.3230  -17.7344   22.4399 H   0  0  0  0  0  0  0  0  0  0  0  0
   -3.9041  -16.0138   22.5678 H   0  0  0  0  0  0  0  0  0  0  0  0
   -7.2547  -18.4997   20.6756 H   0  0  0  0  0  0  0  0  0  0  0  0
   -9.4198  -19.3969   21.4163 H   0  0  0  0  0  0  0  0  0  0  0  0
   -8.8049  -15.0337   26.0935 H   0  0  0  0  0  0  0  0  0  0  0  0
   -6.6358  -15.1534   24.3888 H   0  0  0  0  0  0  0  0  0  0  0  0
  1  2  1  0
  2  3  1  0
  3  4  1  0
  4  5  2  0
  5  6  1  0
  6  7  2  0
  7  8  1  0
  8  9  1  0
  9 10  1  0
  9 11  1  0
 11 12  2  0
 12 13  1  0
 13 14  2  0
 14 15  1  0
 15 16  2  0
 16 17  1  0
 17 18  2  0
 18 19  1  0
  7  3  1  0
 19 11  1  0
 19 15  1  0
  1 20  1  0
  1 21  1  0
  1 22  1  0
  2 23  1  0
  2 24  1  0
  4 25  1  0
  6 26  1  0
  8 27  1  0
  8 28  1  0
 10 29  1  0
 10 30  1  0
 10 31  1  0
 12 32  1  0
 13 33  1  0
 17 34  1  0
 18 35  1  0
M  END
>  <Energy>  (994) 
49.404919986069018

>  <compound_id>  (994) 
8664

>  <target_id>  (994) 
1

>  <reference_id>  (994) 
80

>  <inspiration_ids>  (994) 
[80, 107]

>  <energy_score>  (994) 
-27.068336473127374

>  <distance_score>  (994) 
14.918947078969866

>  <path>  (994) 
/opt/xchem-fragalysis-2/maxwin/BulkDock/SCRATCH/511020/C8664-P80/C8664-P80.minimised.mol

>  <scratch_subdir>  (994) 
/opt/xchem-fragalysis-2/maxwin/BulkDock/SCRATCH/511020/C8664-P80

>  <fragmenstein_runtime>  (994) 
26.82827138900757

>  <fragmenstein_outcome>  (994) 
too moved

>  <fragmenstein_mode>  (994) 
expansion

>  <fragmenstein_error>  (994) 


$$$$
C8664-P107
     RDKit          3D

 35 37  0  0  0  0  0  0  0  0999 V2000
   -0.9878   -7.0574   23.2064 C   0  0  0  0  0  0  0  0  0  0  0  0
    0.1308   -8.0622   22.8933 C   0  0  0  0  0  0  0  0  0  0  0  0
   -0.3181   -9.4624   22.5787 N   0  0  0  0  0  0  0  0  0  0  0  0
   -1.3790   -9.5122   21.6848 C   0  0  0  0  0  0  0  0  0  0  0  0
   -1.0466  -10.5528   21.0354 N   0  0  0  0  0  0  0  0  0  0  0  0
    0.2692  -10.4446   21.4495 C   0  0  0  0  0  0  0  0  0  0  0  0
    0.3955  -11.1176   22.7152 C   0  0  0  0  0  0  0  0  0  0  0  0
    1.6109  -11.9638   24.1875 C   0  0  0  0  0  0  0  0  0  0  0  0
    1.0902  -12.7077   26.0078 N   0  0  0  0  0  0  0  0  0  0  0  0
    0.8962  -11.8141   27.2251 C   0  0  0  0  0  0  0  0  0  0  0  0
   -0.0608  -13.9107   26.3739 C   0  0  0  0  0  0  0  0  0  0  0  0
   -1.3968  -13.7970   26.1120 C   0  0  0  0  0  0  0  0  0  0  0  0
   -2.3808  -14.8680   26.4329 C   0  0  0  0  0  0  0  0  0  0  0  0
   -2.1967  -15.8410   27.2503 N   0  0  0  0  0  0  0  0  0  0  0  0
   -0.9860  -15.8007   27.8652 C   0  0  0  0  0  0  0  0  0  0  0  0
   -0.6490  -16.5067   28.9247 N   0  0  0  0  0  0  0  0  0  0  0  0
    0.5972  -16.0869   29.2631 C   0  0  0  0  0  0  0  0  0  0  0  0
    1.0476  -15.1066   28.4093 C   0  0  0  0  0  0  0  0  0  0  0  0
    0.0657  -14.9052   27.4604 N   0  0  0  0  0  0  0  0  0  0  0  0
   -1.6471   -7.4126   24.0038 H   0  0  0  0  0  0  0  0  0  0  0  0
   -1.5988   -6.8393   22.3254 H   0  0  0  0  0  0  0  0  0  0  0  0
   -0.5470   -6.1079   23.5290 H   0  0  0  0  0  0  0  0  0  0  0  0
    0.8085   -8.0071   23.7325 H   0  0  0  0  0  0  0  0  0  0  0  0
    0.6333   -7.7265   21.9831 H   0  0  0  0  0  0  0  0  0  0  0  0
   -2.2064   -8.8289   21.5635 H   0  0  0  0  0  0  0  0  0  0  0  0
    0.9883   -9.7710   20.9603 H   0  0  0  0  0  0  0  0  0  0  0  0
    2.6038  -11.8778   23.7963 H   0  0  0  0  0  0  0  0  0  0  0  0
    1.8853  -13.0173   24.0211 H   0  0  0  0  0  0  0  0  0  0  0  0
   -0.1268  -11.4339   27.2828 H   0  0  0  0  0  0  0  0  0  0  0  0
    1.0222  -12.4189   28.1308 H   0  0  0  0  0  0  0  0  0  0  0  0
    1.5944  -10.9991   27.4005 H   0  0  0  0  0  0  0  0  0  0  0  0
   -1.8676  -12.9245   25.7130 H   0  0  0  0  0  0  0  0  0  0  0  0
   -3.3449  -14.7871   25.9039 H   0  0  0  0  0  0  0  0  0  0  0  0
    1.1192  -16.5076   30.1125 H   0  0  0  0  0  0  0  0  0  0  0  0
    1.9717  -14.5489   28.3736 H   0  0  0  0  0  0  0  0  0  0  0  0
  1  2  1  0
  2  3  1  0
  3  4  1  0
  4  5  2  0
  5  6  1  0
  6  7  2  0
  7  8  1  0
  8  9  1  0
  9 10  1  0
  9 11  1  0
 11 12  2  0
 12 13  1  0
 13 14  2  0
 14 15  1  0
 15 16  2  0
 16 17  1  0
 17 18  2  0
 18 19  1  0
  7  3  1  0
 19 11  1  0
 19 15  1  0
  1 20  1  0
  1 21  1  0
  1 22  1  0
  2 23  1  0
  2 24  1  0
  4 25  1  0
  6 26  1  0
  8 27  1  0
  8 28  1  0
 10 29  1  0
 10 30  1  0
 10 31  1  0
 12 32  1  0
 13 33  1  0
 17 34  1  0
 18 35  1  0
M  END
>  <Energy>  (995) 
506.6647194382993

>  <compound_id>  (995) 
8664

>  <target_id>  (995) 
1

>  <reference_id>  (995) 
107

>  <inspiration_ids>  (995) 
[80, 107]

>  <energy_score>  (995) 
430.19146297909913

>  <distance_score>  (995) 
15.1675478061531

>  <path>  (995) 
/opt/xchem-fragalysis-2/maxwin/BulkDock/SCRATCH/511020/C8664-P107/C8664-P107.minimised.mol

>  <scratch_subdir>  (995) 
/opt/xchem-fragalysis-2/maxwin/BulkDock/SCRATCH/511020/C8664-P107

>  <fragmenstein_runtime>  (995) 
21.929887533187866

>  <fragmenstein_outcome>  (995) 
too moved

>  <fragmenstein_mode>  (995) 
expansion

>  <fragmenstein_error>  (995) 


$$$$
C8665-P80
     RDKit          3D

 33 36  0  0  0  0  0  0  0  0999 V2000
   -3.0168  -11.6779   18.5720 C   0  0  0  0  0  0  0  0  0  0  0  0
   -3.0732  -10.6664   19.4933 C   0  0  0  0  0  0  0  0  0  0  0  0
   -4.2387  -10.8873   20.1826 N   0  0  0  0  0  0  0  0  0  0  0  0
   -4.8570  -12.0390   19.6925 C   0  0  0  0  0  0  0  0  0  0  0  0
   -6.2811  -12.5650   20.2613 C   0  0  0  0  0  0  0  0  0  0  0  0
   -7.2940  -12.4890   19.1147 C   0  0  0  0  0  0  0  0  0  0  0  0
   -7.0938  -13.8109   18.3884 C   0  0  0  0  0  0  0  0  0  0  0  0
   -6.6518  -14.8191   19.4541 C   0  0  0  0  0  0  0  0  0  0  0  0
   -6.5058  -14.0658   20.7386 N   0  0  0  0  0  0  0  0  0  0  0  0
   -7.3381  -14.5001   21.8811 C   0  0  0  0  0  0  0  0  0  0  0  0
   -8.0523  -13.6560   22.6545 C   0  0  0  0  0  0  0  0  0  0  0  0
   -8.9087  -14.2299   23.7381 C   0  0  0  0  0  0  0  0  0  0  0  0
   -9.0764  -15.4789   24.0263 N   0  0  0  0  0  0  0  0  0  0  0  0
   -8.3476  -16.3420   23.2714 C   0  0  0  0  0  0  0  0  0  0  0  0
   -8.3606  -17.6583   23.3369 N   0  0  0  0  0  0  0  0  0  0  0  0
   -7.3873  -18.0825   22.4847 C   0  0  0  0  0  0  0  0  0  0  0  0
   -6.7996  -17.0198   21.8422 C   0  0  0  0  0  0  0  0  0  0  0  0
   -7.4608  -15.8883   22.2693 N   0  0  0  0  0  0  0  0  0  0  0  0
   -4.1171  -12.5105   18.6933 N   0  0  0  0  0  0  0  0  0  0  0  0
   -2.2471  -11.8667   17.8358 H   0  0  0  0  0  0  0  0  0  0  0  0
   -2.4007   -9.8535   19.7320 H   0  0  0  0  0  0  0  0  0  0  0  0
   -4.5329  -10.4038   21.0230 H   0  0  0  0  0  0  0  0  0  0  0  0
   -6.5626  -11.8834   21.0706 H   0  0  0  0  0  0  0  0  0  0  0  0
   -7.1572  -11.6271   18.4543 H   0  0  0  0  0  0  0  0  0  0  0  0
   -8.3130  -12.4477   19.5190 H   0  0  0  0  0  0  0  0  0  0  0  0
   -6.3227  -13.7228   17.6148 H   0  0  0  0  0  0  0  0  0  0  0  0
   -8.0122  -14.1316   17.8856 H   0  0  0  0  0  0  0  0  0  0  0  0
   -7.3984  -15.6167   19.5235 H   0  0  0  0  0  0  0  0  0  0  0  0
   -5.6903  -15.2703   19.1871 H   0  0  0  0  0  0  0  0  0  0  0  0
   -8.0811  -12.5854   22.5234 H   0  0  0  0  0  0  0  0  0  0  0  0
   -9.4604  -13.4782   24.3278 H   0  0  0  0  0  0  0  0  0  0  0  0
   -7.1518  -19.1327   22.3708 H   0  0  0  0  0  0  0  0  0  0  0  0
   -5.9958  -16.9673   21.1235 H   0  0  0  0  0  0  0  0  0  0  0  0
  1  2  2  0
  2  3  1  0
  3  4  1  0
  4  5  1  0
  5  6  1  0
  6  7  1  0
  7  8  1  0
  8  9  1  0
  9 10  1  0
 10 11  2  0
 11 12  1  0
 12 13  2  0
 13 14  1  0
 14 15  2  0
 15 16  1  0
 16 17  2  0
 17 18  1  0
  4 19  2  0
 19  1  1  0
  9  5  1  0
 18 10  1  0
 18 14  1  0
  1 20  1  0
  2 21  1  0
  3 22  1  0
  5 23  1  0
  6 24  1  0
  6 25  1  0
  7 26  1  0
  7 27  1  0
  8 28  1  0
  8 29  1  0
 11 30  1  0
 12 31  1  0
 16 32  1  0
 17 33  1  0
M  END
>  <Energy>  (996) 
85.854469528748055

>  <compound_id>  (996) 
8665

>  <target_id>  (996) 
1

>  <reference_id>  (996) 
80

>  <inspiration_ids>  (996) 
[80, 107]

>  <energy_score>  (996) 
-16.098716041688135

>  <distance_score>  (996) 
15.022858626264913

>  <path>  (996) 
/opt/xchem-fragalysis-2/maxwin/BulkDock/SCRATCH/511020/C8665-P80/C8665-P80.minimised.mol

>  <scratch_subdir>  (996) 
/opt/xchem-fragalysis-2/maxwin/BulkDock/SCRATCH/511020/C8665-P80

>  <fragmenstein_runtime>  (996) 
35.641473054885864

>  <fragmenstein_outcome>  (996) 
too moved

>  <fragmenstein_mode>  (996) 
expansion

>  <fragmenstein_error>  (996) 


$$$$
C8665-P107
     RDKit          3D

 33 36  0  0  0  0  0  0  0  0999 V2000
    3.6328   -5.5916   15.9576 C   0  0  0  0  0  0  0  0  0  0  0  0
    3.3498   -6.9239   15.7985 C   0  0  0  0  0  0  0  0  0  0  0  0
    3.0110   -7.3760   17.0475 N   0  0  0  0  0  0  0  0  0  0  0  0
    3.1540   -6.3306   17.9248 C   0  0  0  0  0  0  0  0  0  0  0  0
    3.2273   -6.4747   19.4543 C   0  0  0  0  0  0  0  0  0  0  0  0
    5.0270   -7.7602   19.8905 C   0  0  0  0  0  0  0  0  0  0  0  0
    4.6262   -8.0200   22.0960 C   0  0  0  0  0  0  0  0  0  0  0  0
    2.5166   -8.2664   22.1244 C   0  0  0  0  0  0  0  0  0  0  0  0
    1.6944   -6.9232   20.7704 N   0  0  0  0  0  0  0  0  0  0  0  0
    0.4049   -8.1524   20.5715 C   0  0  0  0  0  0  0  0  0  0  0  0
   -0.2105   -8.5135   21.7539 C   0  0  0  0  0  0  0  0  0  0  0  0
   -1.5790   -9.0925   21.7950 C   0  0  0  0  0  0  0  0  0  0  0  0
   -2.2999   -9.5097   20.8221 N   0  0  0  0  0  0  0  0  0  0  0  0
   -1.7855   -9.1768   19.6138 C   0  0  0  0  0  0  0  0  0  0  0  0
   -2.3785   -9.3748   18.4556 N   0  0  0  0  0  0  0  0  0  0  0  0
   -1.6118   -8.7094   17.5489 C   0  0  0  0  0  0  0  0  0  0  0  0
   -0.5106   -8.1006   18.1175 C   0  0  0  0  0  0  0  0  0  0  0  0
   -0.5228   -8.4371   19.4513 N   0  0  0  0  0  0  0  0  0  0  0  0
    3.5366   -5.2420   17.2732 N   0  0  0  0  0  0  0  0  0  0  0  0
    3.9000   -4.8661   15.2011 H   0  0  0  0  0  0  0  0  0  0  0  0
    3.3276   -7.5663   14.9301 H   0  0  0  0  0  0  0  0  0  0  0  0
    2.7549   -8.3249   17.2935 H   0  0  0  0  0  0  0  0  0  0  0  0
    3.3622   -5.3983   19.7292 H   0  0  0  0  0  0  0  0  0  0  0  0
    6.1224   -7.7121   19.3726 H   0  0  0  0  0  0  0  0  0  0  0  0
    4.9207   -8.6040   18.9894 H   0  0  0  0  0  0  0  0  0  0  0  0
    4.4794   -8.6766   22.9652 H   0  0  0  0  0  0  0  0  0  0  0  0
    5.1289   -7.2215   22.7581 H   0  0  0  0  0  0  0  0  0  0  0  0
    2.0613   -8.1918   23.1428 H   0  0  0  0  0  0  0  0  0  0  0  0
    2.1190   -9.2013   21.6963 H   0  0  0  0  0  0  0  0  0  0  0  0
    0.1119   -8.1310   22.7088 H   0  0  0  0  0  0  0  0  0  0  0  0
   -2.0578   -9.0676   22.7767 H   0  0  0  0  0  0  0  0  0  0  0  0
   -1.8997   -8.6719   16.5067 H   0  0  0  0  0  0  0  0  0  0  0  0
    0.2639   -7.4742   17.7096 H   0  0  0  0  0  0  0  0  0  0  0  0
  1  2  2  0
  2  3  1  0
  3  4  1  0
  4  5  1  0
  5  6  1  0
  6  7  1  0
  7  8  1  0
  8  9  1  0
  9 10  1  0
 10 11  2  0
 11 12  1  0
 12 13  2  0
 13 14  1  0
 14 15  2  0
 15 16  1  0
 16 17  2  0
 17 18  1  0
  4 19  2  0
 19  1  1  0
  9  5  1  0
 18 10  1  0
 18 14  1  0
  1 20  1  0
  2 21  1  0
  3 22  1  0
  5 23  1  0
  6 24  1  0
  6 25  1  0
  7 26  1  0
  7 27  1  0
  8 28  1  0
  8 29  1  0
 11 30  1  0
 12 31  1  0
 16 32  1  0
 17 33  1  0
M  END
>  <Energy>  (997) 
774.46736019704963

>  <compound_id>  (997) 
8665

>  <target_id>  (997) 
1

>  <reference_id>  (997) 
107

>  <inspiration_ids>  (997) 
[80, 107]

>  <energy_score>  (997) 
672.5141746266193

>  <distance_score>  (997) 
18.221903162724836

>  <path>  (997) 
/opt/xchem-fragalysis-2/maxwin/BulkDock/SCRATCH/511020/C8665-P107/C8665-P107.minimised.mol

>  <scratch_subdir>  (997) 
/opt/xchem-fragalysis-2/maxwin/BulkDock/SCRATCH/511020/C8665-P107

>  <fragmenstein_runtime>  (997) 
13.669139385223389

>  <fragmenstein_outcome>  (997) 
too moved

>  <fragmenstein_mode>  (997) 
expansion

>  <fragmenstein_error>  (997) 


$$$$
C8666-P80
     RDKit          3D

 36 39  0  0  0  0  0  0  0  0999 V2000
   -3.6783  -15.2277   15.7869 C   0  0  0  0  0  0  0  0  0  0  0  0
   -4.0409  -16.3216   16.5535 C   0  0  0  0  0  0  0  0  0  0  0  0
   -5.3648  -16.1303   16.9145 N   0  0  0  0  0  0  0  0  0  0  0  0
   -6.0475  -16.6913   18.1129 C   0  0  0  0  0  0  0  0  0  0  0  0
   -7.0756  -17.8979   18.1273 C   0  0  0  0  0  0  0  0  0  0  0  0
   -7.9993  -17.8820   16.9135 C   0  0  0  0  0  0  0  0  0  0  0  0
   -8.9950  -16.7904   17.2535 C   0  0  0  0  0  0  0  0  0  0  0  0
   -9.1899  -16.8918   18.7654 C   0  0  0  0  0  0  0  0  0  0  0  0
   -8.0771  -17.7518   19.3017 N   0  0  0  0  0  0  0  0  0  0  0  0
   -8.4949  -18.7703   20.2390 C   0  0  0  0  0  0  0  0  0  0  0  0
   -8.3304  -20.0979   20.0709 C   0  0  0  0  0  0  0  0  0  0  0  0
   -9.0620  -21.0018   21.0122 C   0  0  0  0  0  0  0  0  0  0  0  0
   -9.8571  -20.6504   21.9729 N   0  0  0  0  0  0  0  0  0  0  0  0
   -9.9536  -19.3103   22.1974 C   0  0  0  0  0  0  0  0  0  0  0  0
  -10.6310  -18.6864   23.1497 N   0  0  0  0  0  0  0  0  0  0  0  0
  -10.3520  -17.3565   22.9991 C   0  0  0  0  0  0  0  0  0  0  0  0
   -9.4845  -17.1583   21.9575 C   0  0  0  0  0  0  0  0  0  0  0  0
   -9.2608  -18.3952   21.3934 N   0  0  0  0  0  0  0  0  0  0  0  0
   -5.7178  -14.9321   16.3020 C   0  0  0  0  0  0  0  0  0  0  0  0
   -4.7268  -14.3673   15.6455 N   0  0  0  0  0  0  0  0  0  0  0  0
   -2.7228  -14.9925   15.3407 H   0  0  0  0  0  0  0  0  0  0  0  0
   -3.4699  -17.1623   16.9215 H   0  0  0  0  0  0  0  0  0  0  0  0
   -5.2432  -16.9466   18.8165 H   0  0  0  0  0  0  0  0  0  0  0  0
   -6.5710  -15.8350   18.5590 H   0  0  0  0  0  0  0  0  0  0  0  0
   -6.5231  -18.8406   18.1931 H   0  0  0  0  0  0  0  0  0  0  0  0
   -7.4816  -17.7021   15.9676 H   0  0  0  0  0  0  0  0  0  0  0  0
   -8.5229  -18.8426   16.8319 H   0  0  0  0  0  0  0  0  0  0  0  0
   -9.9381  -16.9100   16.7110 H   0  0  0  0  0  0  0  0  0  0  0  0
   -8.5990  -15.8035   16.9945 H   0  0  0  0  0  0  0  0  0  0  0  0
   -9.1518  -15.8988   19.2248 H   0  0  0  0  0  0  0  0  0  0  0  0
  -10.1713  -17.3349   18.9729 H   0  0  0  0  0  0  0  0  0  0  0  0
   -7.8146  -20.5478   19.2358 H   0  0  0  0  0  0  0  0  0  0  0  0
   -8.9224  -22.0783   20.8141 H   0  0  0  0  0  0  0  0  0  0  0  0
  -10.7750  -16.6080   23.6572 H   0  0  0  0  0  0  0  0  0  0  0  0
   -9.0191  -16.2675   21.5646 H   0  0  0  0  0  0  0  0  0  0  0  0
   -6.6995  -14.4974   16.4308 H   0  0  0  0  0  0  0  0  0  0  0  0
  1  2  2  0
  2  3  1  0
  3  4  1  0
  4  5  1  0
  5  6  1  0
  6  7  1  0
  7  8  1  0
  8  9  1  0
  9 10  1  0
 10 11  2  0
 11 12  1  0
 12 13  2  0
 13 14  1  0
 14 15  2  0
 15 16  1  0
 16 17  2  0
 17 18  1  0
  3 19  1  0
 19 20  2  0
 20  1  1  0
  9  5  1  0
 18 10  1  0
 18 14  1  0
  1 21  1  0
  2 22  1  0
  4 23  1  0
  4 24  1  0
  5 25  1  0
  6 26  1  0
  6 27  1  0
  7 28  1  0
  7 29  1  0
  8 30  1  0
  8 31  1  0
 11 32  1  0
 12 33  1  0
 16 34  1  0
 17 35  1  0
 19 36  1  0
M  END
>  <Energy>  (998) 
89.749511600444578

>  <compound_id>  (998) 
8666

>  <target_id>  (998) 
1

>  <reference_id>  (998) 
80

>  <inspiration_ids>  (998) 
[80, 107]

>  <energy_score>  (998) 
-12.20057660501243

>  <distance_score>  (998) 
15.379821725876514

>  <path>  (998) 
/opt/xchem-fragalysis-2/maxwin/BulkDock/SCRATCH/511020/C8666-P80/C8666-P80.minimised.mol

>  <scratch_subdir>  (998) 
/opt/xchem-fragalysis-2/maxwin/BulkDock/SCRATCH/511020/C8666-P80

>  <fragmenstein_runtime>  (998) 
19.2465603351593

>  <fragmenstein_outcome>  (998) 
too moved

>  <fragmenstein_mode>  (998) 
expansion

>  <fragmenstein_error>  (998) 


$$$$
C8666-P107
     RDKit          3D

 36 39  0  0  0  0  0  0  0  0999 V2000
   -3.7087   -9.0255   23.0693 C   0  0  0  0  0  0  0  0  0  0  0  0
   -4.6451  -10.0197   23.2544 C   0  0  0  0  0  0  0  0  0  0  0  0
   -4.6219  -10.3478   24.5994 N   0  0  0  0  0  0  0  0  0  0  0  0
   -5.6027  -11.2137   25.3051 C   0  0  0  0  0  0  0  0  0  0  0  0
   -5.1644  -12.5637   26.0510 C   0  0  0  0  0  0  0  0  0  0  0  0
   -4.1712  -12.2971   27.1813 C   0  0  0  0  0  0  0  0  0  0  0  0
   -5.0563  -11.7614   28.2942 C   0  0  0  0  0  0  0  0  0  0  0  0
   -6.3923  -12.4952   28.1353 C   0  0  0  0  0  0  0  0  0  0  0  0
   -6.3268  -13.2316   26.8283 N   0  0  0  0  0  0  0  0  0  0  0  0
   -6.5587  -14.6633   26.9233 C   0  0  0  0  0  0  0  0  0  0  0  0
   -5.6480  -15.6068   26.6046 C   0  0  0  0  0  0  0  0  0  0  0  0
   -5.9902  -17.0283   26.8983 C   0  0  0  0  0  0  0  0  0  0  0  0
   -7.0963  -17.4751   27.3956 N   0  0  0  0  0  0  0  0  0  0  0  0
   -8.0469  -16.5370   27.6528 C   0  0  0  0  0  0  0  0  0  0  0  0
   -9.2779  -16.7349   28.0825 N   0  0  0  0  0  0  0  0  0  0  0  0
   -9.8440  -15.5003   28.1962 C   0  0  0  0  0  0  0  0  0  0  0  0
   -8.9589  -14.5235   27.8114 C   0  0  0  0  0  0  0  0  0  0  0  0
   -7.7980  -15.1706   27.4460 N   0  0  0  0  0  0  0  0  0  0  0  0
   -3.7452   -9.4476   25.1629 C   0  0  0  0  0  0  0  0  0  0  0  0
   -3.1281   -8.7075   24.2626 N   0  0  0  0  0  0  0  0  0  0  0  0
   -3.4354   -8.5329   22.1451 H   0  0  0  0  0  0  0  0  0  0  0  0
   -5.3252  -10.4984   22.5626 H   0  0  0  0  0  0  0  0  0  0  0  0
   -6.1144  -10.5437   26.0068 H   0  0  0  0  0  0  0  0  0  0  0  0
   -6.3535  -11.4872   24.5523 H   0  0  0  0  0  0  0  0  0  0  0  0
   -4.7467  -13.2583   25.3190 H   0  0  0  0  0  0  0  0  0  0  0  0
   -3.3599  -11.6171   26.9165 H   0  0  0  0  0  0  0  0  0  0  0  0
   -3.7118  -13.2395   27.5050 H   0  0  0  0  0  0  0  0  0  0  0  0
   -5.2060  -10.6810   28.1877 H   0  0  0  0  0  0  0  0  0  0  0  0
   -4.6151  -11.9295   29.2818 H   0  0  0  0  0  0  0  0  0  0  0  0
   -7.2247  -11.7839   28.1141 H   0  0  0  0  0  0  0  0  0  0  0  0
   -6.5416  -13.1750   28.9822 H   0  0  0  0  0  0  0  0  0  0  0  0
   -4.6574  -15.4001   26.2284 H   0  0  0  0  0  0  0  0  0  0  0  0
   -5.1887  -17.7502   26.6669 H   0  0  0  0  0  0  0  0  0  0  0  0
  -10.8632  -15.3767   28.5409 H   0  0  0  0  0  0  0  0  0  0  0  0
   -9.0563  -13.4517   27.7399 H   0  0  0  0  0  0  0  0  0  0  0  0
   -3.6002   -9.3709   26.2328 H   0  0  0  0  0  0  0  0  0  0  0  0
  1  2  2  0
  2  3  1  0
  3  4  1  0
  4  5  1  0
  5  6  1  0
  6  7  1  0
  7  8  1  0
  8  9  1  0
  9 10  1  0
 10 11  2  0
 11 12  1  0
 12 13  2  0
 13 14  1  0
 14 15  2  0
 15 16  1  0
 16 17  2  0
 17 18  1  0
  3 19  1  0
 19 20  2  0
 20  1  1  0
  9  5  1  0
 18 10  1  0
 18 14  1  0
  1 21  1  0
  2 22  1  0
  4 23  1  0
  4 24  1  0
  5 25  1  0
  6 26  1  0
  6 27  1  0
  7 28  1  0
  7 29  1  0
  8 30  1  0
  8 31  1  0
 11 32  1  0
 12 33  1  0
 16 34  1  0
 17 35  1  0
 19 36  1  0
M  END
>  <Energy>  (999) 
84.009799471837525

>  <compound_id>  (999) 
8666

>  <target_id>  (999) 
1

>  <reference_id>  (999) 
107

>  <inspiration_ids>  (999) 
[80, 107]

>  <energy_score>  (999) 
-17.940288733621287

>  <distance_score>  (999) 
14.114907614497579

>  <path>  (999) 
/opt/xchem-fragalysis-2/maxwin/BulkDock/SCRATCH/511020/C8666-P107/C8666-P107.minimised.mol

>  <scratch_subdir>  (999) 
/opt/xchem-fragalysis-2/maxwin/BulkDock/SCRATCH/511020/C8666-P107

>  <fragmenstein_runtime>  (999) 
26.145413875579834

>  <fragmenstein_outcome>  (999) 
too moved

>  <fragmenstein_mode>  (999) 
expansion

>  <fragmenstein_error>  (999) 


$$$$
C8665-P80
     RDKit          3D

 33 36  0  0  0  0  0  0  0  0999 V2000
   -3.0168  -11.6779   18.5720 C   0  0  0  0  0  0  0  0  0  0  0  0
   -3.0732  -10.6664   19.4933 C   0  0  0  0  0  0  0  0  0  0  0  0
   -4.2387  -10.8873   20.1826 N   0  0  0  0  0  0  0  0  0  0  0  0
   -4.8570  -12.0390   19.6925 C   0  0  0  0  0  0  0  0  0  0  0  0
   -6.2811  -12.5650   20.2613 C   0  0  0  0  0  0  0  0  0  0  0  0
   -7.2940  -12.4890   19.1147 C   0  0  0  0  0  0  0  0  0  0  0  0
   -7.0938  -13.8109   18.3884 C   0  0  0  0  0  0  0  0  0  0  0  0
   -6.6518  -14.8191   19.4541 C   0  0  0  0  0  0  0  0  0  0  0  0
   -6.5058  -14.0658   20.7386 N   0  0  0  0  0  0  0  0  0  0  0  0
   -7.3381  -14.5001   21.8811 C   0  0  0  0  0  0  0  0  0  0  0  0
   -8.0523  -13.6560   22.6545 C   0  0  0  0  0  0  0  0  0  0  0  0
   -8.9087  -14.2299   23.7381 C   0  0  0  0  0  0  0  0  0  0  0  0
   -9.0764  -15.4789   24.0263 N   0  0  0  0  0  0  0  0  0  0  0  0
   -8.3476  -16.3420   23.2714 C   0  0  0  0  0  0  0  0  0  0  0  0
   -8.3606  -17.6583   23.3369 N   0  0  0  0  0  0  0  0  0  0  0  0
   -7.3873  -18.0825   22.4847 C   0  0  0  0  0  0  0  0  0  0  0  0
   -6.7996  -17.0198   21.8422 C   0  0  0  0  0  0  0  0  0  0  0  0
   -7.4608  -15.8883   22.2693 N   0  0  0  0  0  0  0  0  0  0  0  0
   -4.1171  -12.5105   18.6933 N   0  0  0  0  0  0  0  0  0  0  0  0
   -2.2471  -11.8667   17.8358 H   0  0  0  0  0  0  0  0  0  0  0  0
   -2.4007   -9.8535   19.7320 H   0  0  0  0  0  0  0  0  0  0  0  0
   -4.5329  -10.4038   21.0230 H   0  0  0  0  0  0  0  0  0  0  0  0
   -6.5626  -11.8834   21.0706 H   0  0  0  0  0  0  0  0  0  0  0  0
   -7.1572  -11.6271   18.4543 H   0  0  0  0  0  0  0  0  0  0  0  0
   -8.3130  -12.4477   19.5190 H   0  0  0  0  0  0  0  0  0  0  0  0
   -6.3227  -13.7228   17.6148 H   0  0  0  0  0  0  0  0  0  0  0  0
   -8.0122  -14.1316   17.8856 H   0  0  0  0  0  0  0  0  0  0  0  0
   -7.3984  -15.6167   19.5235 H   0  0  0  0  0  0  0  0  0  0  0  0
   -5.6903  -15.2703   19.1871 H   0  0  0  0  0  0  0  0  0  0  0  0
   -8.0811  -12.5854   22.5234 H   0  0  0  0  0  0  0  0  0  0  0  0
   -9.4604  -13.4782   24.3278 H   0  0  0  0  0  0  0  0  0  0  0  0
   -7.1518  -19.1327   22.3708 H   0  0  0  0  0  0  0  0  0  0  0  0
   -5.9958  -16.9673   21.1235 H   0  0  0  0  0  0  0  0  0  0  0  0
  1  2  2  0
  2  3  1  0
  3  4  1  0
  4  5  1  0
  5  6  1  0
  6  7  1  0
  7  8  1  0
  8  9  1  0
  9 10  1  0
 10 11  2  0
 11 12  1  0
 12 13  2  0
 13 14  1  0
 14 15  2  0
 15 16  1  0
 16 17  2  0
 17 18  1  0
  4 19  2  0
 19  1  1  0
  9  5  1  0
 18 10  1  0
 18 14  1  0
  1 20  1  0
  2 21  1  0
  3 22  1  0
  5 23  1  0
  6 24  1  0
  6 25  1  0
  7 26  1  0
  7 27  1  0
  8 28  1  0
  8 29  1  0
 11 30  1  0
 12 31  1  0
 16 32  1  0
 17 33  1  0
M  END
>  <Energy>  (1000) 
85.854469528748055

>  <compound_id>  (1000) 
8665

>  <target_id>  (1000) 
1

>  <reference_id>  (1000) 
80

>  <inspiration_ids>  (1000) 
[80, 107]

>  <energy_score>  (1000) 
-16.098716041688135

>  <distance_score>  (1000) 
15.022858626264913

>  <path>  (1000) 
/opt/xchem-fragalysis-2/maxwin/BulkDock/SCRATCH/511020/C8665-P80/C8665-P80.minimised.mol

>  <scratch_subdir>  (1000) 
/opt/xchem-fragalysis-2/maxwin/BulkDock/SCRATCH/511020/C8665-P80

>  <fragmenstein_runtime>  (1000) 
22.97713565826416

>  <fragmenstein_outcome>  (1000) 
too moved

>  <fragmenstein_mode>  (1000) 
expansion

>  <fragmenstein_error>  (1000) 


$$$$
C8665-P107
     RDKit          3D

 33 36  0  0  0  0  0  0  0  0999 V2000
    3.6328   -5.5916   15.9576 C   0  0  0  0  0  0  0  0  0  0  0  0
    3.3498   -6.9239   15.7985 C   0  0  0  0  0  0  0  0  0  0  0  0
    3.0110   -7.3760   17.0475 N   0  0  0  0  0  0  0  0  0  0  0  0
    3.1540   -6.3306   17.9248 C   0  0  0  0  0  0  0  0  0  0  0  0
    3.2273   -6.4747   19.4543 C   0  0  0  0  0  0  0  0  0  0  0  0
    5.0270   -7.7602   19.8905 C   0  0  0  0  0  0  0  0  0  0  0  0
    4.6262   -8.0200   22.0960 C   0  0  0  0  0  0  0  0  0  0  0  0
    2.5166   -8.2664   22.1244 C   0  0  0  0  0  0  0  0  0  0  0  0
    1.6944   -6.9232   20.7704 N   0  0  0  0  0  0  0  0  0  0  0  0
    0.4049   -8.1524   20.5715 C   0  0  0  0  0  0  0  0  0  0  0  0
   -0.2105   -8.5135   21.7539 C   0  0  0  0  0  0  0  0  0  0  0  0
   -1.5790   -9.0925   21.7950 C   0  0  0  0  0  0  0  0  0  0  0  0
   -2.2999   -9.5097   20.8221 N   0  0  0  0  0  0  0  0  0  0  0  0
   -1.7855   -9.1768   19.6138 C   0  0  0  0  0  0  0  0  0  0  0  0
   -2.3785   -9.3748   18.4556 N   0  0  0  0  0  0  0  0  0  0  0  0
   -1.6118   -8.7094   17.5489 C   0  0  0  0  0  0  0  0  0  0  0  0
   -0.5106   -8.1006   18.1175 C   0  0  0  0  0  0  0  0  0  0  0  0
   -0.5228   -8.4371   19.4513 N   0  0  0  0  0  0  0  0  0  0  0  0
    3.5366   -5.2420   17.2732 N   0  0  0  0  0  0  0  0  0  0  0  0
    3.9000   -4.8661   15.2011 H   0  0  0  0  0  0  0  0  0  0  0  0
    3.3276   -7.5663   14.9301 H   0  0  0  0  0  0  0  0  0  0  0  0
    2.7549   -8.3249   17.2935 H   0  0  0  0  0  0  0  0  0  0  0  0
    3.3622   -5.3983   19.7292 H   0  0  0  0  0  0  0  0  0  0  0  0
    6.1224   -7.7121   19.3726 H   0  0  0  0  0  0  0  0  0  0  0  0
    4.9207   -8.6040   18.9894 H   0  0  0  0  0  0  0  0  0  0  0  0
    4.4794   -8.6766   22.9652 H   0  0  0  0  0  0  0  0  0  0  0  0
    5.1289   -7.2215   22.7581 H   0  0  0  0  0  0  0  0  0  0  0  0
    2.0613   -8.1918   23.1428 H   0  0  0  0  0  0  0  0  0  0  0  0
    2.1190   -9.2013   21.6963 H   0  0  0  0  0  0  0  0  0  0  0  0
    0.1119   -8.1310   22.7088 H   0  0  0  0  0  0  0  0  0  0  0  0
   -2.0578   -9.0676   22.7767 H   0  0  0  0  0  0  0  0  0  0  0  0
   -1.8997   -8.6719   16.5067 H   0  0  0  0  0  0  0  0  0  0  0  0
    0.2639   -7.4742   17.7096 H   0  0  0  0  0  0  0  0  0  0  0  0
  1  2  2  0
  2  3  1  0
  3  4  1  0
  4  5  1  0
  5  6  1  0
  6  7  1  0
  7  8  1  0
  8  9  1  0
  9 10  1  0
 10 11  2  0
 11 12  1  0
 12 13  2  0
 13 14  1  0
 14 15  2  0
 15 16  1  0
 16 17  2  0
 17 18  1  0
  4 19  2  0
 19  1  1  0
  9  5  1  0
 18 10  1  0
 18 14  1  0
  1 20  1  0
  2 21  1  0
  3 22  1  0
  5 23  1  0
  6 24  1  0
  6 25  1  0
  7 26  1  0
  7 27  1  0
  8 28  1  0
  8 29  1  0
 11 30  1  0
 12 31  1  0
 16 32  1  0
 17 33  1  0
M  END
>  <Energy>  (1001) 
774.46736019704963

>  <compound_id>  (1001) 
8665

>  <target_id>  (1001) 
1

>  <reference_id>  (1001) 
107

>  <inspiration_ids>  (1001) 
[80, 107]

>  <energy_score>  (1001) 
672.5141746266193

>  <distance_score>  (1001) 
18.221903162724836

>  <path>  (1001) 
/opt/xchem-fragalysis-2/maxwin/BulkDock/SCRATCH/511020/C8665-P107/C8665-P107.minimised.mol

>  <scratch_subdir>  (1001) 
/opt/xchem-fragalysis-2/maxwin/BulkDock/SCRATCH/511020/C8665-P107

>  <fragmenstein_runtime>  (1001) 
13.769653081893921

>  <fragmenstein_outcome>  (1001) 
too moved

>  <fragmenstein_mode>  (1001) 
expansion

>  <fragmenstein_error>  (1001) 


$$$$
C8667-P80
     RDKit          3D

 35 37  0  0  0  0  0  0  0  0999 V2000
   -1.2944   -8.9448   21.2726 C   0  0  0  0  0  0  0  0  0  0  0  0
   -2.4019   -8.6612   22.2425 C   0  0  0  0  0  0  0  0  0  0  0  0
   -3.6230   -9.3106   22.4159 C   0  0  0  0  0  0  0  0  0  0  0  0
   -3.9900   -9.0810   23.7295 N   0  0  0  0  0  0  0  0  0  0  0  0
   -4.6835   -9.9692   24.7132 C   0  0  0  0  0  0  0  0  0  0  0  0
   -5.8738  -10.9751   24.3932 C   0  0  0  0  0  0  0  0  0  0  0  0
   -6.1195  -12.1465   25.4985 C   0  0  0  0  0  0  0  0  0  0  0  0
   -6.9586  -13.2865   25.0011 N   0  0  0  0  0  0  0  0  0  0  0  0
   -7.8246  -14.2335   25.6381 C   0  0  0  0  0  0  0  0  0  0  0  0
   -8.9393  -14.6248   24.9775 C   0  0  0  0  0  0  0  0  0  0  0  0
   -9.8487  -15.6005   25.6275 C   0  0  0  0  0  0  0  0  0  0  0  0
   -9.6689  -16.1765   26.7674 N   0  0  0  0  0  0  0  0  0  0  0  0
   -8.5079  -15.8583   27.4036 C   0  0  0  0  0  0  0  0  0  0  0  0
   -8.0584  -16.3760   28.5264 N   0  0  0  0  0  0  0  0  0  0  0  0
   -6.8579  -15.7735   28.7620 C   0  0  0  0  0  0  0  0  0  0  0  0
   -6.5579  -14.8635   27.7728 C   0  0  0  0  0  0  0  0  0  0  0  0
   -7.6045  -14.9012   26.8821 N   0  0  0  0  0  0  0  0  0  0  0  0
   -3.1960   -8.0096   24.1188 C   0  0  0  0  0  0  0  0  0  0  0  0
   -2.2222   -7.7688   23.2669 N   0  0  0  0  0  0  0  0  0  0  0  0
   -1.6130   -8.7411   20.2483 H   0  0  0  0  0  0  0  0  0  0  0  0
   -0.3906   -8.3833   21.5206 H   0  0  0  0  0  0  0  0  0  0  0  0
   -1.0411  -10.0063   21.3396 H   0  0  0  0  0  0  0  0  0  0  0  0
   -4.1288  -10.0419   21.8067 H   0  0  0  0  0  0  0  0  0  0  0  0
   -5.0372   -9.2915   25.5009 H   0  0  0  0  0  0  0  0  0  0  0  0
   -3.8634  -10.5564   25.1447 H   0  0  0  0  0  0  0  0  0  0  0  0
   -6.8016  -10.3938   24.3167 H   0  0  0  0  0  0  0  0  0  0  0  0
   -5.7355  -11.4124   23.4036 H   0  0  0  0  0  0  0  0  0  0  0  0
   -5.1470  -12.5513   25.7958 H   0  0  0  0  0  0  0  0  0  0  0  0
   -6.5958  -11.6977   26.3764 H   0  0  0  0  0  0  0  0  0  0  0  0
   -7.2884  -13.0825   24.0573 H   0  0  0  0  0  0  0  0  0  0  0  0
   -9.2346  -14.2417   24.0105 H   0  0  0  0  0  0  0  0  0  0  0  0
  -10.7668  -15.8246   25.0594 H   0  0  0  0  0  0  0  0  0  0  0  0
   -6.2646  -16.0310   29.6312 H   0  0  0  0  0  0  0  0  0  0  0  0
   -5.7035  -14.2243   27.6178 H   0  0  0  0  0  0  0  0  0  0  0  0
   -3.3294   -7.5120   25.0711 H   0  0  0  0  0  0  0  0  0  0  0  0
  1  2  1  0
  2  3  2  0
  3  4  1  0
  4  5  1  0
  5  6  1  0
  6  7  1  0
  7  8  1  0
  8  9  1  0
  9 10  2  0
 10 11  1  0
 11 12  2  0
 12 13  1  0
 13 14  2  0
 14 15  1  0
 15 16  2  0
 16 17  1  0
  4 18  1  0
 18 19  2  0
 19  2  1  0
 17  9  1  0
 17 13  1  0
  1 20  1  0
  1 21  1  0
  1 22  1  0
  3 23  1  0
  5 24  1  0
  5 25  1  0
  6 26  1  0
  6 27  1  0
  7 28  1  0
  7 29  1  0
  8 30  1  0
 10 31  1  0
 11 32  1  0
 15 33  1  0
 16 34  1  0
 18 35  1  0
M  END
>  <Energy>  (1002) 
74.292140726846768

>  <compound_id>  (1002) 
8667

>  <target_id>  (1002) 
1

>  <reference_id>  (1002) 
80

>  <inspiration_ids>  (1002) 
[80, 107]

>  <energy_score>  (1002) 
-13.014239549677825

>  <distance_score>  (1002) 
13.495394181772708

>  <path>  (1002) 
/opt/xchem-fragalysis-2/maxwin/BulkDock/SCRATCH/511020/C8667-P80/C8667-P80.minimised.mol

>  <scratch_subdir>  (1002) 
/opt/xchem-fragalysis-2/maxwin/BulkDock/SCRATCH/511020/C8667-P80

>  <fragmenstein_runtime>  (1002) 
23.94738221168518

>  <fragmenstein_outcome>  (1002) 
too moved

>  <fragmenstein_mode>  (1002) 
expansion

>  <fragmenstein_error>  (1002) 


$$$$
C8667-P107
     RDKit          3D

 35 37  0  0  0  0  0  0  0  0999 V2000
    4.0773   -5.6070   17.0223 C   0  0  0  0  0  0  0  0  0  0  0  0
    4.0775   -6.8781   17.7787 C   0  0  0  0  0  0  0  0  0  0  0  0
    5.1655   -7.5574   18.3366 C   0  0  0  0  0  0  0  0  0  0  0  0
    4.8284   -9.2299   18.5015 N   0  0  0  0  0  0  0  0  0  0  0  0
    5.6926  -10.8424   19.2844 C   0  0  0  0  0  0  0  0  0  0  0  0
    4.8904  -12.1306   20.6311 C   0  0  0  0  0  0  0  0  0  0  0  0
    3.7188  -12.0800   22.2849 C   0  0  0  0  0  0  0  0  0  0  0  0
    3.0070  -13.1965   23.6822 N   0  0  0  0  0  0  0  0  0  0  0  0
    1.6194  -13.2500   24.8158 C   0  0  0  0  0  0  0  0  0  0  0  0
    0.3036  -14.1755   24.4094 C   0  0  0  0  0  0  0  0  0  0  0  0
   -1.2844  -13.7343   25.4409 C   0  0  0  0  0  0  0  0  0  0  0  0
   -1.3180  -13.0405   26.5354 N   0  0  0  0  0  0  0  0  0  0  0  0
   -0.0900  -12.9357   27.1250 C   0  0  0  0  0  0  0  0  0  0  0  0
   -0.0102  -12.8933   28.4434 N   0  0  0  0  0  0  0  0  0  0  0  0
    1.1578  -13.4768   28.7682 C   0  0  0  0  0  0  0  0  0  0  0  0
    1.9048  -13.7354   27.6500 C   0  0  0  0  0  0  0  0  0  0  0  0
    1.2412  -13.2103   26.4925 N   0  0  0  0  0  0  0  0  0  0  0  0
    3.2318   -9.0733   18.0209 C   0  0  0  0  0  0  0  0  0  0  0  0
    2.9358   -7.8329   17.6741 N   0  0  0  0  0  0  0  0  0  0  0  0
    5.0339   -5.4825   16.5237 H   0  0  0  0  0  0  0  0  0  0  0  0
    3.8232   -4.7684   17.6698 H   0  0  0  0  0  0  0  0  0  0  0  0
    3.3438   -5.6361   16.2085 H   0  0  0  0  0  0  0  0  0  0  0  0
    6.1619   -7.1846   18.5132 H   0  0  0  0  0  0  0  0  0  0  0  0
    6.7650  -10.6413   19.3958 H   0  0  0  0  0  0  0  0  0  0  0  0
    5.6037  -11.4873   18.4431 H   0  0  0  0  0  0  0  0  0  0  0  0
    5.8027  -12.7182   20.7652 H   0  0  0  0  0  0  0  0  0  0  0  0
    4.3323  -12.8016   19.9696 H   0  0  0  0  0  0  0  0  0  0  0  0
    3.1816  -11.2481   22.6549 H   0  0  0  0  0  0  0  0  0  0  0  0
    4.5151  -11.4042   22.6345 H   0  0  0  0  0  0  0  0  0  0  0  0
    2.7224  -13.9551   23.0495 H   0  0  0  0  0  0  0  0  0  0  0  0
   -0.0713  -14.1183   23.3773 H   0  0  0  0  0  0  0  0  0  0  0  0
   -2.1174  -14.4603   25.2797 H   0  0  0  0  0  0  0  0  0  0  0  0
    1.4230  -13.6806   29.7973 H   0  0  0  0  0  0  0  0  0  0  0  0
    2.8864  -14.1777   27.5735 H   0  0  0  0  0  0  0  0  0  0  0  0
    2.6501   -9.9535   17.8571 H   0  0  0  0  0  0  0  0  0  0  0  0
  1  2  1  0
  2  3  2  0
  3  4  1  0
  4  5  1  0
  5  6  1  0
  6  7  1  0
  7  8  1  0
  8  9  1  0
  9 10  2  0
 10 11  1  0
 11 12  2  0
 12 13  1  0
 13 14  2  0
 14 15  1  0
 15 16  2  0
 16 17  1  0
  4 18  1  0
 18 19  2  0
 19  2  1  0
 17  9  1  0
 17 13  1  0
  1 20  1  0
  1 21  1  0
  1 22  1  0
  3 23  1  0
  5 24  1  0
  5 25  1  0
  6 26  1  0
  6 27  1  0
  7 28  1  0
  7 29  1  0
  8 30  1  0
 10 31  1  0
 11 32  1  0
 15 33  1  0
 16 34  1  0
 18 35  1  0
M  END
>  <Energy>  (1003) 
720.9435132960557

>  <compound_id>  (1003) 
8667

>  <target_id>  (1003) 
1

>  <reference_id>  (1003) 
107

>  <inspiration_ids>  (1003) 
[80, 107]

>  <energy_score>  (1003) 
633.6371330195459

>  <distance_score>  (1003) 
14.681465125565714

>  <path>  (1003) 
/opt/xchem-fragalysis-2/maxwin/BulkDock/SCRATCH/511020/C8667-P107/C8667-P107.minimised.mol

>  <scratch_subdir>  (1003) 
/opt/xchem-fragalysis-2/maxwin/BulkDock/SCRATCH/511020/C8667-P107

>  <fragmenstein_runtime>  (1003) 
18.283710718154907

>  <fragmenstein_outcome>  (1003) 
too moved

>  <fragmenstein_mode>  (1003) 
expansion

>  <fragmenstein_error>  (1003) 


$$$$
C8668-P80
     RDKit          3D

 36 39  0  0  0  0  0  0  0  0999 V2000
    3.6032  -10.9635   28.9441 C   0  0  0  0  0  0  0  0  0  0  0  0
    2.4949  -11.9544   28.3888 C   0  0  0  0  0  0  0  0  0  0  0  0
    2.5910  -13.5440   27.2688 C   0  0  0  0  0  0  0  0  0  0  0  0
    0.8935  -13.3523   26.1659 C   0  0  0  0  0  0  0  0  0  0  0  0
   -1.0734  -13.6139   25.5869 N   0  0  0  0  0  0  0  0  0  0  0  0
   -2.4736  -14.6510   26.0091 C   0  0  0  0  0  0  0  0  0  0  0  0
   -3.2566  -15.2507   25.0539 C   0  0  0  0  0  0  0  0  0  0  0  0
   -4.1667  -16.4092   25.3295 C   0  0  0  0  0  0  0  0  0  0  0  0
   -4.3826  -16.9631   26.4642 N   0  0  0  0  0  0  0  0  0  0  0  0
   -3.8485  -16.2910   27.5103 C   0  0  0  0  0  0  0  0  0  0  0  0
   -4.1156  -16.5366   28.7757 N   0  0  0  0  0  0  0  0  0  0  0  0
   -3.8213  -15.3866   29.4217 C   0  0  0  0  0  0  0  0  0  0  0  0
   -3.3046  -14.4667   28.5399 C   0  0  0  0  0  0  0  0  0  0  0  0
   -3.0228  -15.1190   27.3515 N   0  0  0  0  0  0  0  0  0  0  0  0
    4.1403  -13.8952   27.0297 C   0  0  0  0  0  0  0  0  0  0  0  0
    5.3337  -12.6945   27.6204 C   0  0  0  0  0  0  0  0  0  0  0  0
    6.6156  -12.2136   26.7539 C   0  0  0  0  0  0  0  0  0  0  0  0
    6.8725  -10.9278   26.4844 N   0  0  0  0  0  0  0  0  0  0  0  0
    7.9570  -10.8675   25.6484 C   0  0  0  0  0  0  0  0  0  0  0  0
    8.4783  -12.1192   25.4919 C   0  0  0  0  0  0  0  0  0  0  0  0
    7.6987  -12.9331   26.2852 N   0  0  0  0  0  0  0  0  0  0  0  0
    5.0416  -11.4209   28.5787 C   0  0  0  0  0  0  0  0  0  0  0  0
    3.3551  -10.1041   29.5221 H   0  0  0  0  0  0  0  0  0  0  0  0
    1.5282  -11.3874   28.4011 H   0  0  0  0  0  0  0  0  0  0  0  0
    0.9750  -12.2616   26.2363 H   0  0  0  0  0  0  0  0  0  0  0  0
    1.4324  -13.3796   25.2403 H   0  0  0  0  0  0  0  0  0  0  0  0
   -1.5347  -12.7247   25.4850 H   0  0  0  0  0  0  0  0  0  0  0  0
   -3.2723  -15.0932   24.0030 H   0  0  0  0  0  0  0  0  0  0  0  0
   -4.6264  -16.8543   24.4296 H   0  0  0  0  0  0  0  0  0  0  0  0
   -4.0802  -15.2381   30.4622 H   0  0  0  0  0  0  0  0  0  0  0  0
   -3.1930  -13.4056   28.6643 H   0  0  0  0  0  0  0  0  0  0  0  0
    4.3524  -14.3930   26.0711 H   0  0  0  0  0  0  0  0  0  0  0  0
    8.2975   -9.9317   25.2283 H   0  0  0  0  0  0  0  0  0  0  0  0
    9.3258  -12.5050   24.9413 H   0  0  0  0  0  0  0  0  0  0  0  0
    7.8887  -13.9106   26.4620 H   0  0  0  0  0  0  0  0  0  0  0  0
    5.8695  -10.7586   28.8344 H   0  0  0  0  0  0  0  0  0  0  0  0
  1  2  2  0
  2  3  1  0
  3  4  1  0
  4  5  1  0
  5  6  1  0
  6  7  2  0
  7  8  1  0
  8  9  2  0
  9 10  1  0
 10 11  2  0
 11 12  1  0
 12 13  2  0
 13 14  1  0
  3 15  2  0
 15 16  1  0
 16 17  1  0
 17 18  2  0
 18 19  1  0
 19 20  2  0
 20 21  1  0
 16 22  2  0
 22  1  1  0
 14  6  1  0
 21 17  1  0
 14 10  1  0
  1 23  1  0
  2 24  1  0
  4 25  1  0
  4 26  1  0
  5 27  1  0
  7 28  1  0
  8 29  1  0
 12 30  1  0
 13 31  1  0
 15 32  1  0
 19 33  1  0
 20 34  1  0
 21 35  1  0
 22 36  1  0
M  END
>  <Energy>  (1004) 
621.61698081075247

>  <compound_id>  (1004) 
8668

>  <target_id>  (1004) 
1

>  <reference_id>  (1004) 
80

>  <inspiration_ids>  (1004) 
[80, 107]

>  <energy_score>  (1004) 
530.6246060201637

>  <distance_score>  (1004) 
13.258142963416452

>  <path>  (1004) 
/opt/xchem-fragalysis-2/maxwin/BulkDock/SCRATCH/511020/C8668-P80/C8668-P80.minimised.mol

>  <scratch_subdir>  (1004) 
/opt/xchem-fragalysis-2/maxwin/BulkDock/SCRATCH/511020/C8668-P80

>  <fragmenstein_runtime>  (1004) 
20.52908182144165

>  <fragmenstein_outcome>  (1004) 
too moved

>  <fragmenstein_mode>  (1004) 
expansion

>  <fragmenstein_error>  (1004) 


$$$$
C8668-P107
     RDKit          3D

 36 39  0  0  0  0  0  0  0  0999 V2000
    4.7257  -12.0699   28.6069 C   0  0  0  0  0  0  0  0  0  0  0  0
    2.9993  -11.4924   28.9076 C   0  0  0  0  0  0  0  0  0  0  0  0
    2.3880  -10.4630   28.3740 C   0  0  0  0  0  0  0  0  0  0  0  0
    0.4751  -10.2263   28.2266 C   0  0  0  0  0  0  0  0  0  0  0  0
   -1.2780  -10.4668   27.3860 N   0  0  0  0  0  0  0  0  0  0  0  0
   -2.6995  -11.5467   26.4643 C   0  0  0  0  0  0  0  0  0  0  0  0
   -2.8350  -12.5913   25.5684 C   0  0  0  0  0  0  0  0  0  0  0  0
   -4.0709  -13.4779   25.3296 C   0  0  0  0  0  0  0  0  0  0  0  0
   -5.0234  -13.8138   26.1096 N   0  0  0  0  0  0  0  0  0  0  0  0
   -4.7956  -13.3869   27.3490 C   0  0  0  0  0  0  0  0  0  0  0  0
   -5.3648  -13.9206   28.4115 N   0  0  0  0  0  0  0  0  0  0  0  0
   -4.6941  -13.4331   29.4694 C   0  0  0  0  0  0  0  0  0  0  0  0
   -3.7071  -12.5783   29.0521 C   0  0  0  0  0  0  0  0  0  0  0  0
   -3.7787  -12.4101   27.6352 N   0  0  0  0  0  0  0  0  0  0  0  0
    3.9750   -9.9052   28.3982 C   0  0  0  0  0  0  0  0  0  0  0  0
    5.5219  -10.2043   28.1924 C   0  0  0  0  0  0  0  0  0  0  0  0
    6.5470   -9.2185   27.7031 C   0  0  0  0  0  0  0  0  0  0  0  0
    7.0256   -8.1656   28.3407 N   0  0  0  0  0  0  0  0  0  0  0  0
    8.1226   -7.7406   27.6176 C   0  0  0  0  0  0  0  0  0  0  0  0
    8.2505   -8.4557   26.4533 C   0  0  0  0  0  0  0  0  0  0  0  0
    7.2259   -9.3608   26.4951 N   0  0  0  0  0  0  0  0  0  0  0  0
    5.8648  -11.4611   28.2021 C   0  0  0  0  0  0  0  0  0  0  0  0
    5.0005  -13.0931   28.7961 H   0  0  0  0  0  0  0  0  0  0  0  0
    2.3583  -11.8813   29.6690 H   0  0  0  0  0  0  0  0  0  0  0  0
    0.1889  -10.2998   29.2846 H   0  0  0  0  0  0  0  0  0  0  0  0
    0.4811   -9.1533   28.0016 H   0  0  0  0  0  0  0  0  0  0  0  0
   -1.6820  -10.4550   28.3469 H   0  0  0  0  0  0  0  0  0  0  0  0
   -1.9255  -13.1132   25.3481 H   0  0  0  0  0  0  0  0  0  0  0  0
   -4.1509  -13.9736   24.3653 H   0  0  0  0  0  0  0  0  0  0  0  0
   -4.9387  -13.7199   30.4830 H   0  0  0  0  0  0  0  0  0  0  0  0
   -3.0059  -12.0154   29.6381 H   0  0  0  0  0  0  0  0  0  0  0  0
    4.3028   -8.9214   28.2149 H   0  0  0  0  0  0  0  0  0  0  0  0
    8.7480   -6.9343   27.9809 H   0  0  0  0  0  0  0  0  0  0  0  0
    8.9632   -8.4189   25.6437 H   0  0  0  0  0  0  0  0  0  0  0  0
    7.0520  -10.0863   25.8146 H   0  0  0  0  0  0  0  0  0  0  0  0
    6.8357  -11.8827   28.0379 H   0  0  0  0  0  0  0  0  0  0  0  0
  1  2  2  0
  2  3  1  0
  3  4  1  0
  4  5  1  0
  5  6  1  0
  6  7  2  0
  7  8  1  0
  8  9  2  0
  9 10  1  0
 10 11  2  0
 11 12  1  0
 12 13  2  0
 13 14  1  0
  3 15  2  0
 15 16  1  0
 16 17  1  0
 17 18  2  0
 18 19  1  0
 19 20  2  0
 20 21  1  0
 16 22  2  0
 22  1  1  0
 14  6  1  0
 21 17  1  0
 14 10  1  0
  1 23  1  0
  2 24  1  0
  4 25  1  0
  4 26  1  0
  5 27  1  0
  7 28  1  0
  8 29  1  0
 12 30  1  0
 13 31  1  0
 15 32  1  0
 19 33  1  0
 20 34  1  0
 21 35  1  0
 22 36  1  0
M  END
>  <Energy>  (1005) 
735.66745107384213

>  <compound_id>  (1005) 
8668

>  <target_id>  (1005) 
1

>  <reference_id>  (1005) 
107

>  <inspiration_ids>  (1005) 
[80, 107]

>  <energy_score>  (1005) 
644.6750762832669

>  <distance_score>  (1005) 
14.015301602696645

>  <path>  (1005) 
/opt/xchem-fragalysis-2/maxwin/BulkDock/SCRATCH/511020/C8668-P107/C8668-P107.minimised.mol

>  <scratch_subdir>  (1005) 
/opt/xchem-fragalysis-2/maxwin/BulkDock/SCRATCH/511020/C8668-P107

>  <fragmenstein_runtime>  (1005) 
17.972591638565063

>  <fragmenstein_outcome>  (1005) 
too moved

>  <fragmenstein_mode>  (1005) 
expansion

>  <fragmenstein_error>  (1005) 


$$$$
C8669-P80
     RDKit          3D

 32 34  0  0  0  0  0  0  0  0999 V2000
    3.9976   -5.8283   15.3086 C   0  0  0  0  0  0  0  0  0  0  0  0
    4.6790   -6.2194   16.5731 N   0  0  0  0  0  0  0  0  0  0  0  0
    6.0173   -6.1997   16.7089 C   0  0  0  0  0  0  0  0  0  0  0  0
    6.1849   -6.3620   18.0285 C   0  0  0  0  0  0  0  0  0  0  0  0
    5.2715   -7.1859   18.5148 N   0  0  0  0  0  0  0  0  0  0  0  0
    4.2144   -7.0851   17.8086 C   0  0  0  0  0  0  0  0  0  0  0  0
    2.6405   -8.2549   17.9035 C   0  0  0  0  0  0  0  0  0  0  0  0
    1.1253   -8.5240   19.0086 C   0  0  0  0  0  0  0  0  0  0  0  0
   -0.7055   -8.6486   18.9451 N   0  0  0  0  0  0  0  0  0  0  0  0
   -1.5672   -9.1361   20.0604 C   0  0  0  0  0  0  0  0  0  0  0  0
   -1.1790   -8.9930   21.3291 C   0  0  0  0  0  0  0  0  0  0  0  0
   -2.2938   -8.9957   22.2694 C   0  0  0  0  0  0  0  0  0  0  0  0
   -3.4890   -9.4520   22.1382 N   0  0  0  0  0  0  0  0  0  0  0  0
   -3.7907   -9.9040   20.8983 C   0  0  0  0  0  0  0  0  0  0  0  0
   -4.9134  -10.4542   20.4752 N   0  0  0  0  0  0  0  0  0  0  0  0
   -4.7377  -10.6623   19.1489 C   0  0  0  0  0  0  0  0  0  0  0  0
   -3.4984  -10.2217   18.7415 C   0  0  0  0  0  0  0  0  0  0  0  0
   -2.8695   -9.7265   19.8575 N   0  0  0  0  0  0  0  0  0  0  0  0
    4.0873   -4.7413   15.2227 H   0  0  0  0  0  0  0  0  0  0  0  0
    2.9536   -6.1319   15.2113 H   0  0  0  0  0  0  0  0  0  0  0  0
    4.4424   -6.3283   14.4535 H   0  0  0  0  0  0  0  0  0  0  0  0
    6.7113   -5.9853   15.9357 H   0  0  0  0  0  0  0  0  0  0  0  0
    7.0040   -6.2484   18.6733 H   0  0  0  0  0  0  0  0  0  0  0  0
    2.1943   -8.0860   16.9267 H   0  0  0  0  0  0  0  0  0  0  0  0
    3.0707   -9.2521   17.8590 H   0  0  0  0  0  0  0  0  0  0  0  0
    1.0614   -7.7226   19.7366 H   0  0  0  0  0  0  0  0  0  0  0  0
    0.7766   -8.5184   17.9670 H   0  0  0  0  0  0  0  0  0  0  0  0
   -0.8177   -9.4597   18.3531 H   0  0  0  0  0  0  0  0  0  0  0  0
   -0.2241   -8.5941   21.6363 H   0  0  0  0  0  0  0  0  0  0  0  0
   -2.0054   -8.5134   23.1932 H   0  0  0  0  0  0  0  0  0  0  0  0
   -5.5154  -11.1046   18.5406 H   0  0  0  0  0  0  0  0  0  0  0  0
   -3.0259  -10.2105   17.7778 H   0  0  0  0  0  0  0  0  0  0  0  0
  1  2  1  0
  2  3  1  0
  3  4  2  0
  4  5  1  0
  5  6  2  0
  6  7  1  0
  7  8  1  0
  8  9  1  0
  9 10  1  0
 10 11  2  0
 11 12  1  0
 12 13  2  0
 13 14  1  0
 14 15  2  0
 15 16  1  0
 16 17  2  0
 17 18  1  0
  6  2  1  0
 18 10  1  0
 18 14  1  0
  1 19  1  0
  1 20  1  0
  1 21  1  0
  3 22  1  0
  4 23  1  0
  7 24  1  0
  7 25  1  0
  8 26  1  0
  8 27  1  0
  9 28  1  0
 11 29  1  0
 12 30  1  0
 16 31  1  0
 17 32  1  0
M  END
>  <Energy>  (1006) 
324.18049208869036

>  <compound_id>  (1006) 
8669

>  <target_id>  (1006) 
1

>  <reference_id>  (1006) 
80

>  <inspiration_ids>  (1006) 
[80, 107]

>  <energy_score>  (1006) 
236.13103604874027

>  <distance_score>  (1006) 
16.588322386289942

>  <path>  (1006) 
/opt/xchem-fragalysis-2/maxwin/BulkDock/SCRATCH/511020/C8669-P80/C8669-P80.minimised.mol

>  <scratch_subdir>  (1006) 
/opt/xchem-fragalysis-2/maxwin/BulkDock/SCRATCH/511020/C8669-P80

>  <fragmenstein_runtime>  (1006) 
13.112543821334839

>  <fragmenstein_outcome>  (1006) 
too moved

>  <fragmenstein_mode>  (1006) 
expansion

>  <fragmenstein_error>  (1006) 


$$$$
C8669-P107
     RDKit          3D

 32 34  0  0  0  0  0  0  0  0999 V2000
    5.3379   -7.9200   19.5513 C   0  0  0  0  0  0  0  0  0  0  0  0
    5.2605   -8.0389   21.6364 N   0  0  0  0  0  0  0  0  0  0  0  0
    7.0418   -7.8250   20.7302 C   0  0  0  0  0  0  0  0  0  0  0  0
    7.5871   -9.5364   20.1860 C   0  0  0  0  0  0  0  0  0  0  0  0
    6.5453  -10.7999   21.2132 N   0  0  0  0  0  0  0  0  0  0  0  0
    5.1918  -10.1610   22.2119 C   0  0  0  0  0  0  0  0  0  0  0  0
    3.8834  -11.6431   22.3792 C   0  0  0  0  0  0  0  0  0  0  0  0
    2.9779  -12.7854   23.6560 C   0  0  0  0  0  0  0  0  0  0  0  0
    2.4835  -14.4183   24.0625 N   0  0  0  0  0  0  0  0  0  0  0  0
    1.2307  -14.9583   24.8039 C   0  0  0  0  0  0  0  0  0  0  0  0
    0.2674  -15.5958   24.0922 C   0  0  0  0  0  0  0  0  0  0  0  0
   -0.6338  -16.5637   24.7897 C   0  0  0  0  0  0  0  0  0  0  0  0
   -0.9248  -16.5962   26.0407 N   0  0  0  0  0  0  0  0  0  0  0  0
   -0.1299  -15.7940   26.7898 C   0  0  0  0  0  0  0  0  0  0  0  0
   -0.1980  -15.6506   28.0966 N   0  0  0  0  0  0  0  0  0  0  0  0
    0.9809  -15.0760   28.4477 C   0  0  0  0  0  0  0  0  0  0  0  0
    1.7660  -14.8206   27.3435 C   0  0  0  0  0  0  0  0  0  0  0  0
    1.0174  -15.1321   26.2356 N   0  0  0  0  0  0  0  0  0  0  0  0
    4.7904   -7.0132   18.9620 H   0  0  0  0  0  0  0  0  0  0  0  0
    4.9078   -8.8162   18.9792 H   0  0  0  0  0  0  0  0  0  0  0  0
    6.3057   -7.4845   19.1201 H   0  0  0  0  0  0  0  0  0  0  0  0
    7.5963   -7.1233   21.3652 H   0  0  0  0  0  0  0  0  0  0  0  0
    8.5962   -9.8856   19.9757 H   0  0  0  0  0  0  0  0  0  0  0  0
    3.2390  -10.8740   22.6840 H   0  0  0  0  0  0  0  0  0  0  0  0
    3.9975  -12.2470   21.4725 H   0  0  0  0  0  0  0  0  0  0  0  0
    2.1634  -12.1975   24.0429 H   0  0  0  0  0  0  0  0  0  0  0  0
    3.8098  -12.9472   24.2833 H   0  0  0  0  0  0  0  0  0  0  0  0
    3.2426  -14.6958   24.6939 H   0  0  0  0  0  0  0  0  0  0  0  0
    0.2286  -15.5893   23.0159 H   0  0  0  0  0  0  0  0  0  0  0  0
   -1.0569  -17.3595   24.1590 H   0  0  0  0  0  0  0  0  0  0  0  0
    1.2307  -14.8991   29.4858 H   0  0  0  0  0  0  0  0  0  0  0  0
    2.7662  -14.4361   27.2592 H   0  0  0  0  0  0  0  0  0  0  0  0
  1  2  1  0
  2  3  1  0
  3  4  2  0
  4  5  1  0
  5  6  2  0
  6  7  1  0
  7  8  1  0
  8  9  1  0
  9 10  1  0
 10 11  2  0
 11 12  1  0
 12 13  2  0
 13 14  1  0
 14 15  2  0
 15 16  1  0
 16 17  2  0
 17 18  1  0
  6  2  1  0
 18 10  1  0
 18 14  1  0
  1 19  1  0
  1 20  1  0
  1 21  1  0
  3 22  1  0
  4 23  1  0
  7 24  1  0
  7 25  1  0
  8 26  1  0
  8 27  1  0
  9 28  1  0
 11 29  1  0
 12 30  1  0
 16 31  1  0
 17 32  1  0
M  END
>  <Energy>  (1007) 
1169.3431834706948

>  <compound_id>  (1007) 
8669

>  <target_id>  (1007) 
1

>  <reference_id>  (1007) 
107

>  <inspiration_ids>  (1007) 
[80, 107]

>  <energy_score>  (1007) 
1081.2937274307728

>  <distance_score>  (1007) 
13.942372108071353

>  <path>  (1007) 
/opt/xchem-fragalysis-2/maxwin/BulkDock/SCRATCH/511020/C8669-P107/C8669-P107.minimised.mol

>  <scratch_subdir>  (1007) 
/opt/xchem-fragalysis-2/maxwin/BulkDock/SCRATCH/511020/C8669-P107

>  <fragmenstein_runtime>  (1007) 
13.377366781234741

>  <fragmenstein_outcome>  (1007) 
too moved

>  <fragmenstein_mode>  (1007) 
expansion

>  <fragmenstein_error>  (1007) 


$$$$
C8670-P80
     RDKit          3D

 33 36  0  0  0  0  0  0  0  0999 V2000
    0.4293   -8.4175   29.4170 C   0  0  0  0  0  0  0  0  0  0  0  0
    1.7152   -8.7386   29.7919 C   0  0  0  0  0  0  0  0  0  0  0  0
    2.1361  -10.3314   29.3290 S   0  0  0  0  0  0  0  0  0  0  0  0
    0.6059  -10.5998   28.6251 C   0  0  0  0  0  0  0  0  0  0  0  0
    0.1276  -11.9439   27.9708 C   0  0  0  0  0  0  0  0  0  0  0  0
    0.8752  -13.0845   27.8430 C   0  0  0  0  0  0  0  0  0  0  0  0
    0.0378  -14.0032   27.2736 N   0  0  0  0  0  0  0  0  0  0  0  0
   -1.2314  -13.4742   27.2440 C   0  0  0  0  0  0  0  0  0  0  0  0
   -2.4478  -14.3396   26.8641 C   0  0  0  0  0  0  0  0  0  0  0  0
   -2.9667  -15.3712   27.8369 N   0  0  0  0  0  0  0  0  0  0  0  0
   -4.0023  -16.3009   27.5421 C   0  0  0  0  0  0  0  0  0  0  0  0
   -4.1817  -16.8469   26.3234 C   0  0  0  0  0  0  0  0  0  0  0  0
   -5.3301  -17.7710   26.1456 C   0  0  0  0  0  0  0  0  0  0  0  0
   -6.2134  -18.0900   27.0326 N   0  0  0  0  0  0  0  0  0  0  0  0
   -6.0394  -17.5217   28.2571 C   0  0  0  0  0  0  0  0  0  0  0  0
   -6.8341  -17.5955   29.2986 N   0  0  0  0  0  0  0  0  0  0  0  0
   -6.1674  -16.9865   30.3250 C   0  0  0  0  0  0  0  0  0  0  0  0
   -5.0037  -16.4119   29.8797 C   0  0  0  0  0  0  0  0  0  0  0  0
   -4.9356  -16.7041   28.5387 N   0  0  0  0  0  0  0  0  0  0  0  0
   -1.1693  -12.1779   27.5389 N   0  0  0  0  0  0  0  0  0  0  0  0
   -0.2177   -9.5017   28.7552 C   0  0  0  0  0  0  0  0  0  0  0  0
   -0.0349   -7.4606   29.6248 H   0  0  0  0  0  0  0  0  0  0  0  0
    2.4228   -8.1186   30.3260 H   0  0  0  0  0  0  0  0  0  0  0  0
    1.8840  -13.3469   28.1197 H   0  0  0  0  0  0  0  0  0  0  0  0
    0.2603  -14.9665   27.0704 H   0  0  0  0  0  0  0  0  0  0  0  0
   -3.2746  -13.6566   26.6343 H   0  0  0  0  0  0  0  0  0  0  0  0
   -2.1825  -14.8532   25.9328 H   0  0  0  0  0  0  0  0  0  0  0  0
   -3.0943  -14.9358   28.7511 H   0  0  0  0  0  0  0  0  0  0  0  0
   -3.5510  -16.6560   25.4684 H   0  0  0  0  0  0  0  0  0  0  0  0
   -5.4163  -18.1949   25.1325 H   0  0  0  0  0  0  0  0  0  0  0  0
   -6.5548  -16.9900   31.3352 H   0  0  0  0  0  0  0  0  0  0  0  0
   -4.2395  -15.8521   30.3951 H   0  0  0  0  0  0  0  0  0  0  0  0
   -1.2412   -9.4822   28.3986 H   0  0  0  0  0  0  0  0  0  0  0  0
  1  2  2  0
  2  3  1  0
  3  4  1  0
  4  5  1  0
  5  6  2  0
  6  7  1  0
  7  8  1  0
  8  9  1  0
  9 10  1  0
 10 11  1  0
 11 12  2  0
 12 13  1  0
 13 14  2  0
 14 15  1  0
 15 16  2  0
 16 17  1  0
 17 18  2  0
 18 19  1  0
  8 20  2  0
  4 21  2  0
 21  1  1  0
 20  5  1  0
 19 11  1  0
 19 15  1  0
  1 22  1  0
  2 23  1  0
  6 24  1  0
  7 25  1  0
  9 26  1  0
  9 27  1  0
 10 28  1  0
 12 29  1  0
 13 30  1  0
 17 31  1  0
 18 32  1  0
 21 33  1  0
M  END
>  <Energy>  (1008) 
64.16512396323354

>  <compound_id>  (1008) 
8670

>  <target_id>  (1008) 
1

>  <reference_id>  (1008) 
80

>  <inspiration_ids>  (1008) 
[80, 107]

>  <energy_score>  (1008) 
-46.11285676628427

>  <distance_score>  (1008) 
14.445063584932889

>  <path>  (1008) 
/opt/xchem-fragalysis-2/maxwin/BulkDock/SCRATCH/511020/C8670-P80/C8670-P80.minimised.mol

>  <scratch_subdir>  (1008) 
/opt/xchem-fragalysis-2/maxwin/BulkDock/SCRATCH/511020/C8670-P80

>  <fragmenstein_runtime>  (1008) 
16.84236717224121

>  <fragmenstein_outcome>  (1008) 
too moved

>  <fragmenstein_mode>  (1008) 
expansion

>  <fragmenstein_error>  (1008) 


$$$$
C8670-P107
     RDKit          3D

 33 36  0  0  0  0  0  0  0  0999 V2000
    8.6668   -4.3450   19.9901 C   0  0  0  0  0  0  0  0  0  0  0  0
    9.8310   -5.4683   20.0326 C   0  0  0  0  0  0  0  0  0  0  0  0
    7.8974   -4.6005   20.6780 S   0  0  0  0  0  0  0  0  0  0  0  0
    6.8960   -6.4240   21.7058 C   0  0  0  0  0  0  0  0  0  0  0  0
    5.1736   -7.1992   22.9066 C   0  0  0  0  0  0  0  0  0  0  0  0
    4.3147   -7.1864   24.1128 C   0  0  0  0  0  0  0  0  0  0  0  0
    2.5641   -7.8404   23.7926 N   0  0  0  0  0  0  0  0  0  0  0  0
    1.8873   -8.5228   22.2892 C   0  0  0  0  0  0  0  0  0  0  0  0
    0.5273  -10.1696   22.0512 C   0  0  0  0  0  0  0  0  0  0  0  0
    0.4303  -12.0944   22.7893 N   0  0  0  0  0  0  0  0  0  0  0  0
   -0.2344  -13.9001   23.3640 C   0  0  0  0  0  0  0  0  0  0  0  0
   -0.2676  -14.3537   24.8689 C   0  0  0  0  0  0  0  0  0  0  0  0
   -1.2294  -15.1886   25.6533 C   0  0  0  0  0  0  0  0  0  0  0  0
   -2.2117  -15.8845   25.2297 N   0  0  0  0  0  0  0  0  0  0  0  0
   -2.3492  -15.9267   23.8904 C   0  0  0  0  0  0  0  0  0  0  0  0
   -3.2661  -16.6718   23.3086 N   0  0  0  0  0  0  0  0  0  0  0  0
   -3.1823  -16.4283   21.9935 C   0  0  0  0  0  0  0  0  0  0  0  0
   -2.2111  -15.4980   21.7122 C   0  0  0  0  0  0  0  0  0  0  0  0
   -1.4696  -15.1687   22.8924 N   0  0  0  0  0  0  0  0  0  0  0  0
    3.6012   -8.2549   22.6358 N   0  0  0  0  0  0  0  0  0  0  0  0
    7.0580   -5.4085   20.0655 C   0  0  0  0  0  0  0  0  0  0  0  0
    9.3554   -3.4767   20.4684 H   0  0  0  0  0  0  0  0  0  0  0  0
    9.6511   -6.2765   19.4058 H   0  0  0  0  0  0  0  0  0  0  0  0
    4.2898   -6.6356   25.0387 H   0  0  0  0  0  0  0  0  0  0  0  0
    2.7599   -8.7235   23.4444 H   0  0  0  0  0  0  0  0  0  0  0  0
    0.4334  -10.2245   21.0170 H   0  0  0  0  0  0  0  0  0  0  0  0
   -0.4085   -9.7055   22.3904 H   0  0  0  0  0  0  0  0  0  0  0  0
   -0.5651  -11.9649   22.4943 H   0  0  0  0  0  0  0  0  0  0  0  0
    0.4012  -13.9342   25.6350 H   0  0  0  0  0  0  0  0  0  0  0  0
   -1.0569  -15.1568   26.7436 H   0  0  0  0  0  0  0  0  0  0  0  0
   -3.8744  -16.8777   21.2926 H   0  0  0  0  0  0  0  0  0  0  0  0
   -2.0855  -14.9945   20.7717 H   0  0  0  0  0  0  0  0  0  0  0  0
    6.5693   -5.6422   19.0618 H   0  0  0  0  0  0  0  0  0  0  0  0
  1  2  2  0
  2  3  1  0
  3  4  1  0
  4  5  1  0
  5  6  2  0
  6  7  1  0
  7  8  1  0
  8  9  1  0
  9 10  1  0
 10 11  1  0
 11 12  2  0
 12 13  1  0
 13 14  2  0
 14 15  1  0
 15 16  2  0
 16 17  1  0
 17 18  2  0
 18 19  1  0
  8 20  2  0
  4 21  2  0
 21  1  1  0
 20  5  1  0
 19 11  1  0
 19 15  1  0
  1 22  1  0
  2 23  1  0
  6 24  1  0
  7 25  1  0
  9 26  1  0
  9 27  1  0
 10 28  1  0
 12 29  1  0
 13 30  1  0
 17 31  1  0
 18 32  1  0
 21 33  1  0
M  END
>  <Energy>  (1009) 
1909.4847227914534

>  <compound_id>  (1009) 
8670

>  <target_id>  (1009) 
1

>  <reference_id>  (1009) 
107

>  <inspiration_ids>  (1009) 
[80, 107]

>  <energy_score>  (1009) 
1799.2067420619496

>  <distance_score>  (1009) 
14.388390691336868

>  <path>  (1009) 
/opt/xchem-fragalysis-2/maxwin/BulkDock/SCRATCH/511020/C8670-P107/C8670-P107.minimised.mol

>  <scratch_subdir>  (1009) 
/opt/xchem-fragalysis-2/maxwin/BulkDock/SCRATCH/511020/C8670-P107

>  <fragmenstein_runtime>  (1009) 
11.774609088897705

>  <fragmenstein_outcome>  (1009) 
too moved

>  <fragmenstein_mode>  (1009) 
expansion

>  <fragmenstein_error>  (1009) 


$$$$
C8666-P80
     RDKit          3D

 36 39  0  0  0  0  0  0  0  0999 V2000
   -3.6783  -15.2277   15.7869 C   0  0  0  0  0  0  0  0  0  0  0  0
   -4.0409  -16.3216   16.5535 C   0  0  0  0  0  0  0  0  0  0  0  0
   -5.3648  -16.1303   16.9145 N   0  0  0  0  0  0  0  0  0  0  0  0
   -6.0475  -16.6913   18.1129 C   0  0  0  0  0  0  0  0  0  0  0  0
   -7.0756  -17.8979   18.1273 C   0  0  0  0  0  0  0  0  0  0  0  0
   -7.9993  -17.8820   16.9135 C   0  0  0  0  0  0  0  0  0  0  0  0
   -8.9950  -16.7904   17.2535 C   0  0  0  0  0  0  0  0  0  0  0  0
   -9.1899  -16.8918   18.7654 C   0  0  0  0  0  0  0  0  0  0  0  0
   -8.0771  -17.7518   19.3017 N   0  0  0  0  0  0  0  0  0  0  0  0
   -8.4949  -18.7703   20.2390 C   0  0  0  0  0  0  0  0  0  0  0  0
   -8.3304  -20.0979   20.0709 C   0  0  0  0  0  0  0  0  0  0  0  0
   -9.0620  -21.0018   21.0122 C   0  0  0  0  0  0  0  0  0  0  0  0
   -9.8571  -20.6504   21.9729 N   0  0  0  0  0  0  0  0  0  0  0  0
   -9.9536  -19.3103   22.1974 C   0  0  0  0  0  0  0  0  0  0  0  0
  -10.6310  -18.6864   23.1497 N   0  0  0  0  0  0  0  0  0  0  0  0
  -10.3520  -17.3565   22.9991 C   0  0  0  0  0  0  0  0  0  0  0  0
   -9.4845  -17.1583   21.9575 C   0  0  0  0  0  0  0  0  0  0  0  0
   -9.2608  -18.3952   21.3934 N   0  0  0  0  0  0  0  0  0  0  0  0
   -5.7178  -14.9321   16.3020 C   0  0  0  0  0  0  0  0  0  0  0  0
   -4.7268  -14.3673   15.6455 N   0  0  0  0  0  0  0  0  0  0  0  0
   -2.7228  -14.9925   15.3407 H   0  0  0  0  0  0  0  0  0  0  0  0
   -3.4699  -17.1623   16.9215 H   0  0  0  0  0  0  0  0  0  0  0  0
   -5.2432  -16.9466   18.8165 H   0  0  0  0  0  0  0  0  0  0  0  0
   -6.5710  -15.8350   18.5590 H   0  0  0  0  0  0  0  0  0  0  0  0
   -6.5231  -18.8406   18.1931 H   0  0  0  0  0  0  0  0  0  0  0  0
   -7.4816  -17.7021   15.9676 H   0  0  0  0  0  0  0  0  0  0  0  0
   -8.5229  -18.8426   16.8319 H   0  0  0  0  0  0  0  0  0  0  0  0
   -9.9381  -16.9100   16.7110 H   0  0  0  0  0  0  0  0  0  0  0  0
   -8.5990  -15.8035   16.9945 H   0  0  0  0  0  0  0  0  0  0  0  0
   -9.1518  -15.8988   19.2248 H   0  0  0  0  0  0  0  0  0  0  0  0
  -10.1713  -17.3349   18.9729 H   0  0  0  0  0  0  0  0  0  0  0  0
   -7.8146  -20.5478   19.2358 H   0  0  0  0  0  0  0  0  0  0  0  0
   -8.9224  -22.0783   20.8141 H   0  0  0  0  0  0  0  0  0  0  0  0
  -10.7750  -16.6080   23.6572 H   0  0  0  0  0  0  0  0  0  0  0  0
   -9.0191  -16.2675   21.5646 H   0  0  0  0  0  0  0  0  0  0  0  0
   -6.6995  -14.4974   16.4308 H   0  0  0  0  0  0  0  0  0  0  0  0
  1  2  2  0
  2  3  1  0
  3  4  1  0
  4  5  1  0
  5  6  1  0
  6  7  1  0
  7  8  1  0
  8  9  1  0
  9 10  1  0
 10 11  2  0
 11 12  1  0
 12 13  2  0
 13 14  1  0
 14 15  2  0
 15 16  1  0
 16 17  2  0
 17 18  1  0
  3 19  1  0
 19 20  2  0
 20  1  1  0
  9  5  1  0
 18 10  1  0
 18 14  1  0
  1 21  1  0
  2 22  1  0
  4 23  1  0
  4 24  1  0
  5 25  1  0
  6 26  1  0
  6 27  1  0
  7 28  1  0
  7 29  1  0
  8 30  1  0
  8 31  1  0
 11 32  1  0
 12 33  1  0
 16 34  1  0
 17 35  1  0
 19 36  1  0
M  END
>  <Energy>  (1010) 
89.749511600444578

>  <compound_id>  (1010) 
8666

>  <target_id>  (1010) 
1

>  <reference_id>  (1010) 
80

>  <inspiration_ids>  (1010) 
[80, 107]

>  <energy_score>  (1010) 
-12.20057660501243

>  <distance_score>  (1010) 
15.379821725876514

>  <path>  (1010) 
/opt/xchem-fragalysis-2/maxwin/BulkDock/SCRATCH/511020/C8666-P80/C8666-P80.minimised.mol

>  <scratch_subdir>  (1010) 
/opt/xchem-fragalysis-2/maxwin/BulkDock/SCRATCH/511020/C8666-P80

>  <fragmenstein_runtime>  (1010) 
19.165055513381958

>  <fragmenstein_outcome>  (1010) 
too moved

>  <fragmenstein_mode>  (1010) 
expansion

>  <fragmenstein_error>  (1010) 


$$$$
C8666-P107
     RDKit          3D

 36 39  0  0  0  0  0  0  0  0999 V2000
   -3.7087   -9.0255   23.0693 C   0  0  0  0  0  0  0  0  0  0  0  0
   -4.6451  -10.0197   23.2544 C   0  0  0  0  0  0  0  0  0  0  0  0
   -4.6219  -10.3478   24.5994 N   0  0  0  0  0  0  0  0  0  0  0  0
   -5.6027  -11.2137   25.3051 C   0  0  0  0  0  0  0  0  0  0  0  0
   -5.1644  -12.5637   26.0510 C   0  0  0  0  0  0  0  0  0  0  0  0
   -4.1712  -12.2971   27.1813 C   0  0  0  0  0  0  0  0  0  0  0  0
   -5.0563  -11.7614   28.2942 C   0  0  0  0  0  0  0  0  0  0  0  0
   -6.3923  -12.4952   28.1353 C   0  0  0  0  0  0  0  0  0  0  0  0
   -6.3268  -13.2316   26.8283 N   0  0  0  0  0  0  0  0  0  0  0  0
   -6.5587  -14.6633   26.9233 C   0  0  0  0  0  0  0  0  0  0  0  0
   -5.6480  -15.6068   26.6046 C   0  0  0  0  0  0  0  0  0  0  0  0
   -5.9902  -17.0283   26.8983 C   0  0  0  0  0  0  0  0  0  0  0  0
   -7.0963  -17.4751   27.3956 N   0  0  0  0  0  0  0  0  0  0  0  0
   -8.0469  -16.5370   27.6528 C   0  0  0  0  0  0  0  0  0  0  0  0
   -9.2779  -16.7349   28.0825 N   0  0  0  0  0  0  0  0  0  0  0  0
   -9.8440  -15.5003   28.1962 C   0  0  0  0  0  0  0  0  0  0  0  0
   -8.9589  -14.5235   27.8114 C   0  0  0  0  0  0  0  0  0  0  0  0
   -7.7980  -15.1706   27.4460 N   0  0  0  0  0  0  0  0  0  0  0  0
   -3.7452   -9.4476   25.1629 C   0  0  0  0  0  0  0  0  0  0  0  0
   -3.1281   -8.7075   24.2626 N   0  0  0  0  0  0  0  0  0  0  0  0
   -3.4354   -8.5329   22.1451 H   0  0  0  0  0  0  0  0  0  0  0  0
   -5.3252  -10.4984   22.5626 H   0  0  0  0  0  0  0  0  0  0  0  0
   -6.1144  -10.5437   26.0068 H   0  0  0  0  0  0  0  0  0  0  0  0
   -6.3535  -11.4872   24.5523 H   0  0  0  0  0  0  0  0  0  0  0  0
   -4.7467  -13.2583   25.3190 H   0  0  0  0  0  0  0  0  0  0  0  0
   -3.3599  -11.6171   26.9165 H   0  0  0  0  0  0  0  0  0  0  0  0
   -3.7118  -13.2395   27.5050 H   0  0  0  0  0  0  0  0  0  0  0  0
   -5.2060  -10.6810   28.1877 H   0  0  0  0  0  0  0  0  0  0  0  0
   -4.6151  -11.9295   29.2818 H   0  0  0  0  0  0  0  0  0  0  0  0
   -7.2247  -11.7839   28.1141 H   0  0  0  0  0  0  0  0  0  0  0  0
   -6.5416  -13.1750   28.9822 H   0  0  0  0  0  0  0  0  0  0  0  0
   -4.6574  -15.4001   26.2284 H   0  0  0  0  0  0  0  0  0  0  0  0
   -5.1887  -17.7502   26.6669 H   0  0  0  0  0  0  0  0  0  0  0  0
  -10.8632  -15.3767   28.5409 H   0  0  0  0  0  0  0  0  0  0  0  0
   -9.0563  -13.4517   27.7399 H   0  0  0  0  0  0  0  0  0  0  0  0
   -3.6002   -9.3709   26.2328 H   0  0  0  0  0  0  0  0  0  0  0  0
  1  2  2  0
  2  3  1  0
  3  4  1  0
  4  5  1  0
  5  6  1  0
  6  7  1  0
  7  8  1  0
  8  9  1  0
  9 10  1  0
 10 11  2  0
 11 12  1  0
 12 13  2  0
 13 14  1  0
 14 15  2  0
 15 16  1  0
 16 17  2  0
 17 18  1  0
  3 19  1  0
 19 20  2  0
 20  1  1  0
  9  5  1  0
 18 10  1  0
 18 14  1  0
  1 21  1  0
  2 22  1  0
  4 23  1  0
  4 24  1  0
  5 25  1  0
  6 26  1  0
  6 27  1  0
  7 28  1  0
  7 29  1  0
  8 30  1  0
  8 31  1  0
 11 32  1  0
 12 33  1  0
 16 34  1  0
 17 35  1  0
 19 36  1  0
M  END
>  <Energy>  (1011) 
84.009799471837525

>  <compound_id>  (1011) 
8666

>  <target_id>  (1011) 
1

>  <reference_id>  (1011) 
107

>  <inspiration_ids>  (1011) 
[80, 107]

>  <energy_score>  (1011) 
-17.940288733621287

>  <distance_score>  (1011) 
14.114907614497579

>  <path>  (1011) 
/opt/xchem-fragalysis-2/maxwin/BulkDock/SCRATCH/511020/C8666-P107/C8666-P107.minimised.mol

>  <scratch_subdir>  (1011) 
/opt/xchem-fragalysis-2/maxwin/BulkDock/SCRATCH/511020/C8666-P107

>  <fragmenstein_runtime>  (1011) 
26.24441123008728

>  <fragmenstein_outcome>  (1011) 
too moved

>  <fragmenstein_mode>  (1011) 
expansion

>  <fragmenstein_error>  (1011) 


$$$$
C8669-P80
     RDKit          3D

 32 34  0  0  0  0  0  0  0  0999 V2000
    3.9976   -5.8283   15.3086 C   0  0  0  0  0  0  0  0  0  0  0  0
    4.6790   -6.2194   16.5731 N   0  0  0  0  0  0  0  0  0  0  0  0
    6.0173   -6.1997   16.7089 C   0  0  0  0  0  0  0  0  0  0  0  0
    6.1849   -6.3620   18.0285 C   0  0  0  0  0  0  0  0  0  0  0  0
    5.2715   -7.1859   18.5148 N   0  0  0  0  0  0  0  0  0  0  0  0
    4.2144   -7.0851   17.8086 C   0  0  0  0  0  0  0  0  0  0  0  0
    2.6405   -8.2549   17.9035 C   0  0  0  0  0  0  0  0  0  0  0  0
    1.1253   -8.5240   19.0086 C   0  0  0  0  0  0  0  0  0  0  0  0
   -0.7055   -8.6486   18.9451 N   0  0  0  0  0  0  0  0  0  0  0  0
   -1.5672   -9.1361   20.0604 C   0  0  0  0  0  0  0  0  0  0  0  0
   -1.1790   -8.9930   21.3291 C   0  0  0  0  0  0  0  0  0  0  0  0
   -2.2938   -8.9957   22.2694 C   0  0  0  0  0  0  0  0  0  0  0  0
   -3.4890   -9.4520   22.1382 N   0  0  0  0  0  0  0  0  0  0  0  0
   -3.7907   -9.9040   20.8983 C   0  0  0  0  0  0  0  0  0  0  0  0
   -4.9134  -10.4542   20.4752 N   0  0  0  0  0  0  0  0  0  0  0  0
   -4.7377  -10.6623   19.1489 C   0  0  0  0  0  0  0  0  0  0  0  0
   -3.4984  -10.2217   18.7415 C   0  0  0  0  0  0  0  0  0  0  0  0
   -2.8695   -9.7265   19.8575 N   0  0  0  0  0  0  0  0  0  0  0  0
    4.0873   -4.7413   15.2227 H   0  0  0  0  0  0  0  0  0  0  0  0
    2.9536   -6.1319   15.2113 H   0  0  0  0  0  0  0  0  0  0  0  0
    4.4424   -6.3283   14.4535 H   0  0  0  0  0  0  0  0  0  0  0  0
    6.7113   -5.9853   15.9357 H   0  0  0  0  0  0  0  0  0  0  0  0
    7.0040   -6.2484   18.6733 H   0  0  0  0  0  0  0  0  0  0  0  0
    2.1943   -8.0860   16.9267 H   0  0  0  0  0  0  0  0  0  0  0  0
    3.0707   -9.2521   17.8590 H   0  0  0  0  0  0  0  0  0  0  0  0
    1.0614   -7.7226   19.7366 H   0  0  0  0  0  0  0  0  0  0  0  0
    0.7766   -8.5184   17.9670 H   0  0  0  0  0  0  0  0  0  0  0  0
   -0.8177   -9.4597   18.3531 H   0  0  0  0  0  0  0  0  0  0  0  0
   -0.2241   -8.5941   21.6363 H   0  0  0  0  0  0  0  0  0  0  0  0
   -2.0054   -8.5134   23.1932 H   0  0  0  0  0  0  0  0  0  0  0  0
   -5.5154  -11.1046   18.5406 H   0  0  0  0  0  0  0  0  0  0  0  0
   -3.0259  -10.2105   17.7778 H   0  0  0  0  0  0  0  0  0  0  0  0
  1  2  1  0
  2  3  1  0
  3  4  2  0
  4  5  1  0
  5  6  2  0
  6  7  1  0
  7  8  1  0
  8  9  1  0
  9 10  1  0
 10 11  2  0
 11 12  1  0
 12 13  2  0
 13 14  1  0
 14 15  2  0
 15 16  1  0
 16 17  2  0
 17 18  1  0
  6  2  1  0
 18 10  1  0
 18 14  1  0
  1 19  1  0
  1 20  1  0
  1 21  1  0
  3 22  1  0
  4 23  1  0
  7 24  1  0
  7 25  1  0
  8 26  1  0
  8 27  1  0
  9 28  1  0
 11 29  1  0
 12 30  1  0
 16 31  1  0
 17 32  1  0
M  END
>  <Energy>  (1012) 
324.18049208869036

>  <compound_id>  (1012) 
8669

>  <target_id>  (1012) 
1

>  <reference_id>  (1012) 
80

>  <inspiration_ids>  (1012) 
[80, 107]

>  <energy_score>  (1012) 
236.13103604874027

>  <distance_score>  (1012) 
16.588322386289942

>  <path>  (1012) 
/opt/xchem-fragalysis-2/maxwin/BulkDock/SCRATCH/511020/C8669-P80/C8669-P80.minimised.mol

>  <scratch_subdir>  (1012) 
/opt/xchem-fragalysis-2/maxwin/BulkDock/SCRATCH/511020/C8669-P80

>  <fragmenstein_runtime>  (1012) 
13.07639455795288

>  <fragmenstein_outcome>  (1012) 
too moved

>  <fragmenstein_mode>  (1012) 
expansion

>  <fragmenstein_error>  (1012) 


$$$$
C8669-P107
     RDKit          3D

 32 34  0  0  0  0  0  0  0  0999 V2000
    5.3379   -7.9200   19.5513 C   0  0  0  0  0  0  0  0  0  0  0  0
    5.2605   -8.0389   21.6364 N   0  0  0  0  0  0  0  0  0  0  0  0
    7.0418   -7.8250   20.7302 C   0  0  0  0  0  0  0  0  0  0  0  0
    7.5871   -9.5364   20.1860 C   0  0  0  0  0  0  0  0  0  0  0  0
    6.5453  -10.7999   21.2132 N   0  0  0  0  0  0  0  0  0  0  0  0
    5.1918  -10.1610   22.2119 C   0  0  0  0  0  0  0  0  0  0  0  0
    3.8834  -11.6431   22.3792 C   0  0  0  0  0  0  0  0  0  0  0  0
    2.9779  -12.7854   23.6560 C   0  0  0  0  0  0  0  0  0  0  0  0
    2.4835  -14.4183   24.0625 N   0  0  0  0  0  0  0  0  0  0  0  0
    1.2307  -14.9583   24.8039 C   0  0  0  0  0  0  0  0  0  0  0  0
    0.2674  -15.5958   24.0922 C   0  0  0  0  0  0  0  0  0  0  0  0
   -0.6338  -16.5637   24.7897 C   0  0  0  0  0  0  0  0  0  0  0  0
   -0.9248  -16.5962   26.0407 N   0  0  0  0  0  0  0  0  0  0  0  0
   -0.1299  -15.7940   26.7898 C   0  0  0  0  0  0  0  0  0  0  0  0
   -0.1980  -15.6506   28.0966 N   0  0  0  0  0  0  0  0  0  0  0  0
    0.9809  -15.0760   28.4477 C   0  0  0  0  0  0  0  0  0  0  0  0
    1.7660  -14.8206   27.3435 C   0  0  0  0  0  0  0  0  0  0  0  0
    1.0174  -15.1321   26.2356 N   0  0  0  0  0  0  0  0  0  0  0  0
    4.7904   -7.0132   18.9620 H   0  0  0  0  0  0  0  0  0  0  0  0
    4.9078   -8.8162   18.9792 H   0  0  0  0  0  0  0  0  0  0  0  0
    6.3057   -7.4845   19.1201 H   0  0  0  0  0  0  0  0  0  0  0  0
    7.5963   -7.1233   21.3652 H   0  0  0  0  0  0  0  0  0  0  0  0
    8.5962   -9.8856   19.9757 H   0  0  0  0  0  0  0  0  0  0  0  0
    3.2390  -10.8740   22.6840 H   0  0  0  0  0  0  0  0  0  0  0  0
    3.9975  -12.2470   21.4725 H   0  0  0  0  0  0  0  0  0  0  0  0
    2.1634  -12.1975   24.0429 H   0  0  0  0  0  0  0  0  0  0  0  0
    3.8098  -12.9472   24.2833 H   0  0  0  0  0  0  0  0  0  0  0  0
    3.2426  -14.6958   24.6939 H   0  0  0  0  0  0  0  0  0  0  0  0
    0.2286  -15.5893   23.0159 H   0  0  0  0  0  0  0  0  0  0  0  0
   -1.0569  -17.3595   24.1590 H   0  0  0  0  0  0  0  0  0  0  0  0
    1.2307  -14.8991   29.4858 H   0  0  0  0  0  0  0  0  0  0  0  0
    2.7662  -14.4361   27.2592 H   0  0  0  0  0  0  0  0  0  0  0  0
  1  2  1  0
  2  3  1  0
  3  4  2  0
  4  5  1  0
  5  6  2  0
  6  7  1  0
  7  8  1  0
  8  9  1  0
  9 10  1  0
 10 11  2  0
 11 12  1  0
 12 13  2  0
 13 14  1  0
 14 15  2  0
 15 16  1  0
 16 17  2  0
 17 18  1  0
  6  2  1  0
 18 10  1  0
 18 14  1  0
  1 19  1  0
  1 20  1  0
  1 21  1  0
  3 22  1  0
  4 23  1  0
  7 24  1  0
  7 25  1  0
  8 26  1  0
  8 27  1  0
  9 28  1  0
 11 29  1  0
 12 30  1  0
 16 31  1  0
 17 32  1  0
M  END
>  <Energy>  (1013) 
1169.3431834706948

>  <compound_id>  (1013) 
8669

>  <target_id>  (1013) 
1

>  <reference_id>  (1013) 
107

>  <inspiration_ids>  (1013) 
[80, 107]

>  <energy_score>  (1013) 
1081.2937274307728

>  <distance_score>  (1013) 
13.942372108071353

>  <path>  (1013) 
/opt/xchem-fragalysis-2/maxwin/BulkDock/SCRATCH/511020/C8669-P107/C8669-P107.minimised.mol

>  <scratch_subdir>  (1013) 
/opt/xchem-fragalysis-2/maxwin/BulkDock/SCRATCH/511020/C8669-P107

>  <fragmenstein_runtime>  (1013) 
13.091171026229858

>  <fragmenstein_outcome>  (1013) 
too moved

>  <fragmenstein_mode>  (1013) 
expansion

>  <fragmenstein_error>  (1013) 


$$$$
C8670-P80
     RDKit          3D

 33 36  0  0  0  0  0  0  0  0999 V2000
    0.4293   -8.4175   29.4170 C   0  0  0  0  0  0  0  0  0  0  0  0
    1.7152   -8.7386   29.7919 C   0  0  0  0  0  0  0  0  0  0  0  0
    2.1361  -10.3314   29.3290 S   0  0  0  0  0  0  0  0  0  0  0  0
    0.6059  -10.5998   28.6251 C   0  0  0  0  0  0  0  0  0  0  0  0
    0.1276  -11.9439   27.9708 C   0  0  0  0  0  0  0  0  0  0  0  0
    0.8752  -13.0845   27.8430 C   0  0  0  0  0  0  0  0  0  0  0  0
    0.0378  -14.0032   27.2736 N   0  0  0  0  0  0  0  0  0  0  0  0
   -1.2314  -13.4742   27.2440 C   0  0  0  0  0  0  0  0  0  0  0  0
   -2.4478  -14.3396   26.8641 C   0  0  0  0  0  0  0  0  0  0  0  0
   -2.9667  -15.3712   27.8369 N   0  0  0  0  0  0  0  0  0  0  0  0
   -4.0023  -16.3009   27.5421 C   0  0  0  0  0  0  0  0  0  0  0  0
   -4.1817  -16.8469   26.3234 C   0  0  0  0  0  0  0  0  0  0  0  0
   -5.3301  -17.7710   26.1456 C   0  0  0  0  0  0  0  0  0  0  0  0
   -6.2134  -18.0900   27.0326 N   0  0  0  0  0  0  0  0  0  0  0  0
   -6.0394  -17.5217   28.2571 C   0  0  0  0  0  0  0  0  0  0  0  0
   -6.8341  -17.5955   29.2986 N   0  0  0  0  0  0  0  0  0  0  0  0
   -6.1674  -16.9865   30.3250 C   0  0  0  0  0  0  0  0  0  0  0  0
   -5.0037  -16.4119   29.8797 C   0  0  0  0  0  0  0  0  0  0  0  0
   -4.9356  -16.7041   28.5387 N   0  0  0  0  0  0  0  0  0  0  0  0
   -1.1693  -12.1779   27.5389 N   0  0  0  0  0  0  0  0  0  0  0  0
   -0.2177   -9.5017   28.7552 C   0  0  0  0  0  0  0  0  0  0  0  0
   -0.0349   -7.4606   29.6248 H   0  0  0  0  0  0  0  0  0  0  0  0
    2.4228   -8.1186   30.3260 H   0  0  0  0  0  0  0  0  0  0  0  0
    1.8840  -13.3469   28.1197 H   0  0  0  0  0  0  0  0  0  0  0  0
    0.2603  -14.9665   27.0704 H   0  0  0  0  0  0  0  0  0  0  0  0
   -3.2746  -13.6566   26.6343 H   0  0  0  0  0  0  0  0  0  0  0  0
   -2.1825  -14.8532   25.9328 H   0  0  0  0  0  0  0  0  0  0  0  0
   -3.0943  -14.9358   28.7511 H   0  0  0  0  0  0  0  0  0  0  0  0
   -3.5510  -16.6560   25.4684 H   0  0  0  0  0  0  0  0  0  0  0  0
   -5.4163  -18.1949   25.1325 H   0  0  0  0  0  0  0  0  0  0  0  0
   -6.5548  -16.9900   31.3352 H   0  0  0  0  0  0  0  0  0  0  0  0
   -4.2395  -15.8521   30.3951 H   0  0  0  0  0  0  0  0  0  0  0  0
   -1.2412   -9.4822   28.3986 H   0  0  0  0  0  0  0  0  0  0  0  0
  1  2  2  0
  2  3  1  0
  3  4  1  0
  4  5  1  0
  5  6  2  0
  6  7  1  0
  7  8  1  0
  8  9  1  0
  9 10  1  0
 10 11  1  0
 11 12  2  0
 12 13  1  0
 13 14  2  0
 14 15  1  0
 15 16  2  0
 16 17  1  0
 17 18  2  0
 18 19  1  0
  8 20  2  0
  4 21  2  0
 21  1  1  0
 20  5  1  0
 19 11  1  0
 19 15  1  0
  1 22  1  0
  2 23  1  0
  6 24  1  0
  7 25  1  0
  9 26  1  0
  9 27  1  0
 10 28  1  0
 12 29  1  0
 13 30  1  0
 17 31  1  0
 18 32  1  0
 21 33  1  0
M  END
>  <Energy>  (1014) 
64.16512396323354

>  <compound_id>  (1014) 
8670

>  <target_id>  (1014) 
1

>  <reference_id>  (1014) 
80

>  <inspiration_ids>  (1014) 
[80, 107]

>  <energy_score>  (1014) 
-46.11285676628427

>  <distance_score>  (1014) 
14.445063584932889

>  <path>  (1014) 
/opt/xchem-fragalysis-2/maxwin/BulkDock/SCRATCH/511020/C8670-P80/C8670-P80.minimised.mol

>  <scratch_subdir>  (1014) 
/opt/xchem-fragalysis-2/maxwin/BulkDock/SCRATCH/511020/C8670-P80

>  <fragmenstein_runtime>  (1014) 
17.195337295532227

>  <fragmenstein_outcome>  (1014) 
too moved

>  <fragmenstein_mode>  (1014) 
expansion

>  <fragmenstein_error>  (1014) 


$$$$
C8670-P107
     RDKit          3D

 33 36  0  0  0  0  0  0  0  0999 V2000
    8.6668   -4.3450   19.9901 C   0  0  0  0  0  0  0  0  0  0  0  0
    9.8310   -5.4683   20.0326 C   0  0  0  0  0  0  0  0  0  0  0  0
    7.8974   -4.6005   20.6780 S   0  0  0  0  0  0  0  0  0  0  0  0
    6.8960   -6.4240   21.7058 C   0  0  0  0  0  0  0  0  0  0  0  0
    5.1736   -7.1992   22.9066 C   0  0  0  0  0  0  0  0  0  0  0  0
    4.3147   -7.1864   24.1128 C   0  0  0  0  0  0  0  0  0  0  0  0
    2.5641   -7.8404   23.7926 N   0  0  0  0  0  0  0  0  0  0  0  0
    1.8873   -8.5228   22.2892 C   0  0  0  0  0  0  0  0  0  0  0  0
    0.5273  -10.1696   22.0512 C   0  0  0  0  0  0  0  0  0  0  0  0
    0.4303  -12.0944   22.7893 N   0  0  0  0  0  0  0  0  0  0  0  0
   -0.2344  -13.9001   23.3640 C   0  0  0  0  0  0  0  0  0  0  0  0
   -0.2676  -14.3537   24.8689 C   0  0  0  0  0  0  0  0  0  0  0  0
   -1.2294  -15.1886   25.6533 C   0  0  0  0  0  0  0  0  0  0  0  0
   -2.2117  -15.8845   25.2297 N   0  0  0  0  0  0  0  0  0  0  0  0
   -2.3492  -15.9267   23.8904 C   0  0  0  0  0  0  0  0  0  0  0  0
   -3.2661  -16.6718   23.3086 N   0  0  0  0  0  0  0  0  0  0  0  0
   -3.1823  -16.4283   21.9935 C   0  0  0  0  0  0  0  0  0  0  0  0
   -2.2111  -15.4980   21.7122 C   0  0  0  0  0  0  0  0  0  0  0  0
   -1.4696  -15.1687   22.8924 N   0  0  0  0  0  0  0  0  0  0  0  0
    3.6012   -8.2549   22.6358 N   0  0  0  0  0  0  0  0  0  0  0  0
    7.0580   -5.4085   20.0655 C   0  0  0  0  0  0  0  0  0  0  0  0
    9.3554   -3.4767   20.4684 H   0  0  0  0  0  0  0  0  0  0  0  0
    9.6511   -6.2765   19.4058 H   0  0  0  0  0  0  0  0  0  0  0  0
    4.2898   -6.6356   25.0387 H   0  0  0  0  0  0  0  0  0  0  0  0
    2.7599   -8.7235   23.4444 H   0  0  0  0  0  0  0  0  0  0  0  0
    0.4334  -10.2245   21.0170 H   0  0  0  0  0  0  0  0  0  0  0  0
   -0.4085   -9.7055   22.3904 H   0  0  0  0  0  0  0  0  0  0  0  0
   -0.5651  -11.9649   22.4943 H   0  0  0  0  0  0  0  0  0  0  0  0
    0.4012  -13.9342   25.6350 H   0  0  0  0  0  0  0  0  0  0  0  0
   -1.0569  -15.1568   26.7436 H   0  0  0  0  0  0  0  0  0  0  0  0
   -3.8744  -16.8777   21.2926 H   0  0  0  0  0  0  0  0  0  0  0  0
   -2.0855  -14.9945   20.7717 H   0  0  0  0  0  0  0  0  0  0  0  0
    6.5693   -5.6422   19.0618 H   0  0  0  0  0  0  0  0  0  0  0  0
  1  2  2  0
  2  3  1  0
  3  4  1  0
  4  5  1  0
  5  6  2  0
  6  7  1  0
  7  8  1  0
  8  9  1  0
  9 10  1  0
 10 11  1  0
 11 12  2  0
 12 13  1  0
 13 14  2  0
 14 15  1  0
 15 16  2  0
 16 17  1  0
 17 18  2  0
 18 19  1  0
  8 20  2  0
  4 21  2  0
 21  1  1  0
 20  5  1  0
 19 11  1  0
 19 15  1  0
  1 22  1  0
  2 23  1  0
  6 24  1  0
  7 25  1  0
  9 26  1  0
  9 27  1  0
 10 28  1  0
 12 29  1  0
 13 30  1  0
 17 31  1  0
 18 32  1  0
 21 33  1  0
M  END
>  <Energy>  (1015) 
1909.4847227914534

>  <compound_id>  (1015) 
8670

>  <target_id>  (1015) 
1

>  <reference_id>  (1015) 
107

>  <inspiration_ids>  (1015) 
[80, 107]

>  <energy_score>  (1015) 
1799.2067420619496

>  <distance_score>  (1015) 
14.388390691336868

>  <path>  (1015) 
/opt/xchem-fragalysis-2/maxwin/BulkDock/SCRATCH/511020/C8670-P107/C8670-P107.minimised.mol

>  <scratch_subdir>  (1015) 
/opt/xchem-fragalysis-2/maxwin/BulkDock/SCRATCH/511020/C8670-P107

>  <fragmenstein_runtime>  (1015) 
11.774344682693481

>  <fragmenstein_outcome>  (1015) 
too moved

>  <fragmenstein_mode>  (1015) 
expansion

>  <fragmenstein_error>  (1015) 


$$$$
C8668-P80
     RDKit          3D

 36 39  0  0  0  0  0  0  0  0999 V2000
    3.6032  -10.9635   28.9441 C   0  0  0  0  0  0  0  0  0  0  0  0
    2.4949  -11.9544   28.3888 C   0  0  0  0  0  0  0  0  0  0  0  0
    2.5910  -13.5440   27.2688 C   0  0  0  0  0  0  0  0  0  0  0  0
    0.8935  -13.3523   26.1659 C   0  0  0  0  0  0  0  0  0  0  0  0
   -1.0734  -13.6139   25.5869 N   0  0  0  0  0  0  0  0  0  0  0  0
   -2.4736  -14.6510   26.0091 C   0  0  0  0  0  0  0  0  0  0  0  0
   -3.2566  -15.2507   25.0539 C   0  0  0  0  0  0  0  0  0  0  0  0
   -4.1667  -16.4092   25.3295 C   0  0  0  0  0  0  0  0  0  0  0  0
   -4.3826  -16.9631   26.4642 N   0  0  0  0  0  0  0  0  0  0  0  0
   -3.8485  -16.2910   27.5103 C   0  0  0  0  0  0  0  0  0  0  0  0
   -4.1156  -16.5366   28.7757 N   0  0  0  0  0  0  0  0  0  0  0  0
   -3.8213  -15.3866   29.4217 C   0  0  0  0  0  0  0  0  0  0  0  0
   -3.3046  -14.4667   28.5399 C   0  0  0  0  0  0  0  0  0  0  0  0
   -3.0228  -15.1190   27.3515 N   0  0  0  0  0  0  0  0  0  0  0  0
    4.1403  -13.8952   27.0297 C   0  0  0  0  0  0  0  0  0  0  0  0
    5.3337  -12.6945   27.6204 C   0  0  0  0  0  0  0  0  0  0  0  0
    6.6156  -12.2136   26.7539 C   0  0  0  0  0  0  0  0  0  0  0  0
    6.8725  -10.9278   26.4844 N   0  0  0  0  0  0  0  0  0  0  0  0
    7.9570  -10.8675   25.6484 C   0  0  0  0  0  0  0  0  0  0  0  0
    8.4783  -12.1192   25.4919 C   0  0  0  0  0  0  0  0  0  0  0  0
    7.6987  -12.9331   26.2852 N   0  0  0  0  0  0  0  0  0  0  0  0
    5.0416  -11.4209   28.5787 C   0  0  0  0  0  0  0  0  0  0  0  0
    3.3551  -10.1041   29.5221 H   0  0  0  0  0  0  0  0  0  0  0  0
    1.5282  -11.3874   28.4011 H   0  0  0  0  0  0  0  0  0  0  0  0
    0.9750  -12.2616   26.2363 H   0  0  0  0  0  0  0  0  0  0  0  0
    1.4324  -13.3796   25.2403 H   0  0  0  0  0  0  0  0  0  0  0  0
   -1.5347  -12.7247   25.4850 H   0  0  0  0  0  0  0  0  0  0  0  0
   -3.2723  -15.0932   24.0030 H   0  0  0  0  0  0  0  0  0  0  0  0
   -4.6264  -16.8543   24.4296 H   0  0  0  0  0  0  0  0  0  0  0  0
   -4.0802  -15.2381   30.4622 H   0  0  0  0  0  0  0  0  0  0  0  0
   -3.1930  -13.4056   28.6643 H   0  0  0  0  0  0  0  0  0  0  0  0
    4.3524  -14.3930   26.0711 H   0  0  0  0  0  0  0  0  0  0  0  0
    8.2975   -9.9317   25.2283 H   0  0  0  0  0  0  0  0  0  0  0  0
    9.3258  -12.5050   24.9413 H   0  0  0  0  0  0  0  0  0  0  0  0
    7.8887  -13.9106   26.4620 H   0  0  0  0  0  0  0  0  0  0  0  0
    5.8695  -10.7586   28.8344 H   0  0  0  0  0  0  0  0  0  0  0  0
  1  2  2  0
  2  3  1  0
  3  4  1  0
  4  5  1  0
  5  6  1  0
  6  7  2  0
  7  8  1  0
  8  9  2  0
  9 10  1  0
 10 11  2  0
 11 12  1  0
 12 13  2  0
 13 14  1  0
  3 15  2  0
 15 16  1  0
 16 17  1  0
 17 18  2  0
 18 19  1  0
 19 20  2  0
 20 21  1  0
 16 22  2  0
 22  1  1  0
 14  6  1  0
 21 17  1  0
 14 10  1  0
  1 23  1  0
  2 24  1  0
  4 25  1  0
  4 26  1  0
  5 27  1  0
  7 28  1  0
  8 29  1  0
 12 30  1  0
 13 31  1  0
 15 32  1  0
 19 33  1  0
 20 34  1  0
 21 35  1  0
 22 36  1  0
M  END
>  <Energy>  (1016) 
621.61698081075247

>  <compound_id>  (1016) 
8668

>  <target_id>  (1016) 
1

>  <reference_id>  (1016) 
80

>  <inspiration_ids>  (1016) 
[80, 107]

>  <energy_score>  (1016) 
530.6246060201637

>  <distance_score>  (1016) 
13.258142963416452

>  <path>  (1016) 
/opt/xchem-fragalysis-2/maxwin/BulkDock/SCRATCH/511020/C8668-P80/C8668-P80.minimised.mol

>  <scratch_subdir>  (1016) 
/opt/xchem-fragalysis-2/maxwin/BulkDock/SCRATCH/511020/C8668-P80

>  <fragmenstein_runtime>  (1016) 
20.021232843399048

>  <fragmenstein_outcome>  (1016) 
too moved

>  <fragmenstein_mode>  (1016) 
expansion

>  <fragmenstein_error>  (1016) 


$$$$
C8668-P107
     RDKit          3D

 36 39  0  0  0  0  0  0  0  0999 V2000
    4.7257  -12.0699   28.6069 C   0  0  0  0  0  0  0  0  0  0  0  0
    2.9993  -11.4924   28.9076 C   0  0  0  0  0  0  0  0  0  0  0  0
    2.3880  -10.4630   28.3740 C   0  0  0  0  0  0  0  0  0  0  0  0
    0.4751  -10.2263   28.2266 C   0  0  0  0  0  0  0  0  0  0  0  0
   -1.2780  -10.4668   27.3860 N   0  0  0  0  0  0  0  0  0  0  0  0
   -2.6995  -11.5467   26.4643 C   0  0  0  0  0  0  0  0  0  0  0  0
   -2.8350  -12.5913   25.5684 C   0  0  0  0  0  0  0  0  0  0  0  0
   -4.0709  -13.4779   25.3296 C   0  0  0  0  0  0  0  0  0  0  0  0
   -5.0234  -13.8138   26.1096 N   0  0  0  0  0  0  0  0  0  0  0  0
   -4.7956  -13.3869   27.3490 C   0  0  0  0  0  0  0  0  0  0  0  0
   -5.3648  -13.9206   28.4115 N   0  0  0  0  0  0  0  0  0  0  0  0
   -4.6941  -13.4331   29.4694 C   0  0  0  0  0  0  0  0  0  0  0  0
   -3.7071  -12.5783   29.0521 C   0  0  0  0  0  0  0  0  0  0  0  0
   -3.7787  -12.4101   27.6352 N   0  0  0  0  0  0  0  0  0  0  0  0
    3.9750   -9.9052   28.3982 C   0  0  0  0  0  0  0  0  0  0  0  0
    5.5219  -10.2043   28.1924 C   0  0  0  0  0  0  0  0  0  0  0  0
    6.5470   -9.2185   27.7031 C   0  0  0  0  0  0  0  0  0  0  0  0
    7.0256   -8.1656   28.3407 N   0  0  0  0  0  0  0  0  0  0  0  0
    8.1226   -7.7406   27.6176 C   0  0  0  0  0  0  0  0  0  0  0  0
    8.2505   -8.4557   26.4533 C   0  0  0  0  0  0  0  0  0  0  0  0
    7.2259   -9.3608   26.4951 N   0  0  0  0  0  0  0  0  0  0  0  0
    5.8648  -11.4611   28.2021 C   0  0  0  0  0  0  0  0  0  0  0  0
    5.0005  -13.0931   28.7961 H   0  0  0  0  0  0  0  0  0  0  0  0
    2.3583  -11.8813   29.6690 H   0  0  0  0  0  0  0  0  0  0  0  0
    0.1889  -10.2998   29.2846 H   0  0  0  0  0  0  0  0  0  0  0  0
    0.4811   -9.1533   28.0016 H   0  0  0  0  0  0  0  0  0  0  0  0
   -1.6820  -10.4550   28.3469 H   0  0  0  0  0  0  0  0  0  0  0  0
   -1.9255  -13.1132   25.3481 H   0  0  0  0  0  0  0  0  0  0  0  0
   -4.1509  -13.9736   24.3653 H   0  0  0  0  0  0  0  0  0  0  0  0
   -4.9387  -13.7199   30.4830 H   0  0  0  0  0  0  0  0  0  0  0  0
   -3.0059  -12.0154   29.6381 H   0  0  0  0  0  0  0  0  0  0  0  0
    4.3028   -8.9214   28.2149 H   0  0  0  0  0  0  0  0  0  0  0  0
    8.7480   -6.9343   27.9809 H   0  0  0  0  0  0  0  0  0  0  0  0
    8.9632   -8.4189   25.6437 H   0  0  0  0  0  0  0  0  0  0  0  0
    7.0520  -10.0863   25.8146 H   0  0  0  0  0  0  0  0  0  0  0  0
    6.8357  -11.8827   28.0379 H   0  0  0  0  0  0  0  0  0  0  0  0
  1  2  2  0
  2  3  1  0
  3  4  1  0
  4  5  1  0
  5  6  1  0
  6  7  2  0
  7  8  1  0
  8  9  2  0
  9 10  1  0
 10 11  2  0
 11 12  1  0
 12 13  2  0
 13 14  1  0
  3 15  2  0
 15 16  1  0
 16 17  1  0
 17 18  2  0
 18 19  1  0
 19 20  2  0
 20 21  1  0
 16 22  2  0
 22  1  1  0
 14  6  1  0
 21 17  1  0
 14 10  1  0
  1 23  1  0
  2 24  1  0
  4 25  1  0
  4 26  1  0
  5 27  1  0
  7 28  1  0
  8 29  1  0
 12 30  1  0
 13 31  1  0
 15 32  1  0
 19 33  1  0
 20 34  1  0
 21 35  1  0
 22 36  1  0
M  END
>  <Energy>  (1017) 
735.66745107384213

>  <compound_id>  (1017) 
8668

>  <target_id>  (1017) 
1

>  <reference_id>  (1017) 
107

>  <inspiration_ids>  (1017) 
[80, 107]

>  <energy_score>  (1017) 
644.6750762832669

>  <distance_score>  (1017) 
14.015301602696645

>  <path>  (1017) 
/opt/xchem-fragalysis-2/maxwin/BulkDock/SCRATCH/511020/C8668-P107/C8668-P107.minimised.mol

>  <scratch_subdir>  (1017) 
/opt/xchem-fragalysis-2/maxwin/BulkDock/SCRATCH/511020/C8668-P107

>  <fragmenstein_runtime>  (1017) 
17.777590036392212

>  <fragmenstein_outcome>  (1017) 
too moved

>  <fragmenstein_mode>  (1017) 
expansion

>  <fragmenstein_error>  (1017) 


$$$$
C8671-P80
     RDKit          3D

 35 38  0  0  0  0  0  0  0  0999 V2000
    2.5817  -14.6383   18.8915 C   0  0  0  0  0  0  0  0  0  0  0  0
    3.7152  -14.2980   18.3889 C   0  0  0  0  0  0  0  0  0  0  0  0
    4.3998  -13.4675   19.1273 N   0  0  0  0  0  0  0  0  0  0  0  0
    4.3188  -13.0283   20.4881 C   0  0  0  0  0  0  0  0  0  0  0  0
    5.3920  -12.1470   20.4624 N   0  0  0  0  0  0  0  0  0  0  0  0
    6.6970  -12.1967   20.5522 C   0  0  0  0  0  0  0  0  0  0  0  0
    7.2138  -11.1258   19.6983 C   0  0  0  0  0  0  0  0  0  0  0  0
    6.2854  -10.6184   19.0709 N   0  0  0  0  0  0  0  0  0  0  0  0
    5.6382  -11.6781   19.2301 C   0  0  0  0  0  0  0  0  0  0  0  0
    3.2936  -13.6082   21.3477 C   0  0  0  0  0  0  0  0  0  0  0  0
    2.8886  -13.8376   23.2616 C   0  0  0  0  0  0  0  0  0  0  0  0
    1.0962  -13.9520   23.9485 N   0  0  0  0  0  0  0  0  0  0  0  0
    0.0617  -14.3873   25.3851 C   0  0  0  0  0  0  0  0  0  0  0  0
   -1.1627  -14.9903   25.1938 C   0  0  0  0  0  0  0  0  0  0  0  0
   -2.3649  -14.6857   26.0508 C   0  0  0  0  0  0  0  0  0  0  0  0
   -2.2997  -14.3065   27.2707 N   0  0  0  0  0  0  0  0  0  0  0  0
   -1.0248  -14.1621   27.7166 C   0  0  0  0  0  0  0  0  0  0  0  0
   -0.6902  -14.0941   28.9849 N   0  0  0  0  0  0  0  0  0  0  0  0
    0.6497  -13.9254   28.9957 C   0  0  0  0  0  0  0  0  0  0  0  0
    1.1599  -13.8697   27.7197 C   0  0  0  0  0  0  0  0  0  0  0  0
    0.1304  -14.0726   26.8359 N   0  0  0  0  0  0  0  0  0  0  0  0
    2.4089  -14.4971   20.3565 C   0  0  0  0  0  0  0  0  0  0  0  0
    2.0255  -15.1945   18.2496 H   0  0  0  0  0  0  0  0  0  0  0  0
    4.1814  -14.8586   17.6150 H   0  0  0  0  0  0  0  0  0  0  0  0
    7.3153  -12.9327   20.9827 H   0  0  0  0  0  0  0  0  0  0  0  0
    8.2490  -10.8443   19.4461 H   0  0  0  0  0  0  0  0  0  0  0  0
    4.9750  -11.9344   18.4728 H   0  0  0  0  0  0  0  0  0  0  0  0
    3.1814  -12.8812   23.6825 H   0  0  0  0  0  0  0  0  0  0  0  0
    3.4164  -14.7464   23.5449 H   0  0  0  0  0  0  0  0  0  0  0  0
    1.2731  -13.0459   24.4625 H   0  0  0  0  0  0  0  0  0  0  0  0
   -1.1029  -16.0175   25.5975 H   0  0  0  0  0  0  0  0  0  0  0  0
   -3.3429  -14.8527   25.5693 H   0  0  0  0  0  0  0  0  0  0  0  0
    1.2012  -13.8588   29.9250 H   0  0  0  0  0  0  0  0  0  0  0  0
    2.1816  -13.8232   27.4029 H   0  0  0  0  0  0  0  0  0  0  0  0
    1.6413  -15.1655   20.6867 H   0  0  0  0  0  0  0  0  0  0  0  0
  1  2  2  0
  2  3  1  0
  3  4  2  0
  4  5  1  0
  5  6  1  0
  6  7  2  0
  7  8  1  0
  8  9  2  0
  4 10  1  0
 10 11  1  0
 11 12  1  0
 12 13  1  0
 13 14  2  0
 14 15  1  0
 15 16  2  0
 16 17  1  0
 17 18  2  0
 18 19  1  0
 19 20  2  0
 20 21  1  0
 10 22  2  0
 22  1  1  0
  9  5  1  0
 21 13  1  0
 21 17  1  0
  1 23  1  0
  2 24  1  0
  6 25  1  0
  7 26  1  0
  9 27  1  0
 11 28  1  0
 11 29  1  0
 12 30  1  0
 14 31  1  0
 15 32  1  0
 19 33  1  0
 20 34  1  0
 22 35  1  0
M  END
>  <Energy>  (1018) 
566.2985683019715

>  <compound_id>  (1018) 
8671

>  <target_id>  (1018) 
1

>  <reference_id>  (1018) 
80

>  <inspiration_ids>  (1018) 
[80, 107]

>  <energy_score>  (1018) 
426.9274145651659

>  <distance_score>  (1018) 
14.010507488209468

>  <path>  (1018) 
/opt/xchem-fragalysis-2/maxwin/BulkDock/SCRATCH/511020/C8671-P80/C8671-P80.minimised.mol

>  <scratch_subdir>  (1018) 
/opt/xchem-fragalysis-2/maxwin/BulkDock/SCRATCH/511020/C8671-P80

>  <fragmenstein_runtime>  (1018) 
17.3524169921875

>  <fragmenstein_outcome>  (1018) 
too moved

>  <fragmenstein_mode>  (1018) 
expansion

>  <fragmenstein_error>  (1018) 


$$$$
C8671-P107
     RDKit          3D

 35 38  0  0  0  0  0  0  0  0999 V2000
    3.2002  -14.5639   22.9893 C   0  0  0  0  0  0  0  0  0  0  0  0
    3.3049  -13.7351   21.5707 C   0  0  0  0  0  0  0  0  0  0  0  0
    3.8523  -12.5421   21.4237 N   0  0  0  0  0  0  0  0  0  0  0  0
    3.7433  -11.7460   22.4840 C   0  0  0  0  0  0  0  0  0  0  0  0
    5.0119  -10.3646   22.1945 N   0  0  0  0  0  0  0  0  0  0  0  0
    4.8754   -8.2706   21.9480 C   0  0  0  0  0  0  0  0  0  0  0  0
    5.3375   -8.0008   19.9464 C   0  0  0  0  0  0  0  0  0  0  0  0
    5.4849   -9.9053   19.2363 N   0  0  0  0  0  0  0  0  0  0  0  0
    5.6709  -11.0476   20.5371 C   0  0  0  0  0  0  0  0  0  0  0  0
    3.1672  -12.7015   23.8279 C   0  0  0  0  0  0  0  0  0  0  0  0
    1.8079  -12.8747   24.8166 C   0  0  0  0  0  0  0  0  0  0  0  0
    1.2099  -13.5651   26.4084 N   0  0  0  0  0  0  0  0  0  0  0  0
   -0.1300  -14.2133   26.7548 C   0  0  0  0  0  0  0  0  0  0  0  0
   -1.3229  -13.6076   26.5514 C   0  0  0  0  0  0  0  0  0  0  0  0
   -2.6124  -14.3270   26.7567 C   0  0  0  0  0  0  0  0  0  0  0  0
   -2.7613  -15.5100   27.2423 N   0  0  0  0  0  0  0  0  0  0  0  0
   -1.6092  -16.0757   27.6876 C   0  0  0  0  0  0  0  0  0  0  0  0
   -1.5165  -17.2077   28.3542 N   0  0  0  0  0  0  0  0  0  0  0  0
   -0.2104  -17.3152   28.7128 C   0  0  0  0  0  0  0  0  0  0  0  0
    0.5289  -16.2594   28.2272 C   0  0  0  0  0  0  0  0  0  0  0  0
   -0.3284  -15.4645   27.4951 N   0  0  0  0  0  0  0  0  0  0  0  0
    3.5410  -13.9536   24.0836 C   0  0  0  0  0  0  0  0  0  0  0  0
    3.5295  -15.5867   23.1039 H   0  0  0  0  0  0  0  0  0  0  0  0
    2.7712  -14.1344   20.7031 H   0  0  0  0  0  0  0  0  0  0  0  0
    4.7544   -7.7509   22.9404 H   0  0  0  0  0  0  0  0  0  0  0  0
    6.4464   -7.7135   19.7276 H   0  0  0  0  0  0  0  0  0  0  0  0
    5.7224  -12.1236   20.4333 H   0  0  0  0  0  0  0  0  0  0  0  0
    1.2782  -13.6228   24.2248 H   0  0  0  0  0  0  0  0  0  0  0  0
    1.5968  -11.8491   24.9609 H   0  0  0  0  0  0  0  0  0  0  0  0
    2.0076  -13.8904   26.9445 H   0  0  0  0  0  0  0  0  0  0  0  0
   -1.4280  -12.5884   26.2494 H   0  0  0  0  0  0  0  0  0  0  0  0
   -3.5054  -13.7757   26.4164 H   0  0  0  0  0  0  0  0  0  0  0  0
    0.1395  -18.1413   29.3189 H   0  0  0  0  0  0  0  0  0  0  0  0
    1.5675  -16.0022   28.3606 H   0  0  0  0  0  0  0  0  0  0  0  0
    3.9563  -14.3535   25.0002 H   0  0  0  0  0  0  0  0  0  0  0  0
  1  2  2  0
  2  3  1  0
  3  4  2  0
  4  5  1  0
  5  6  1  0
  6  7  2  0
  7  8  1  0
  8  9  2  0
  4 10  1  0
 10 11  1  0
 11 12  1  0
 12 13  1  0
 13 14  2  0
 14 15  1  0
 15 16  2  0
 16 17  1  0
 17 18  2  0
 18 19  1  0
 19 20  2  0
 20 21  1  0
 10 22  2  0
 22  1  1  0
  9  5  1  0
 21 13  1  0
 21 17  1  0
  1 23  1  0
  2 24  1  0
  6 25  1  0
  7 26  1  0
  9 27  1  0
 11 28  1  0
 11 29  1  0
 12 30  1  0
 14 31  1  0
 15 32  1  0
 19 33  1  0
 20 34  1  0
 22 35  1  0
M  END
>  <Energy>  (1019) 
1132.3922433342182

>  <compound_id>  (1019) 
8671

>  <target_id>  (1019) 
1

>  <reference_id>  (1019) 
107

>  <inspiration_ids>  (1019) 
[80, 107]

>  <energy_score>  (1019) 
993.0210895974323

>  <distance_score>  (1019) 
13.255291007824436

>  <path>  (1019) 
/opt/xchem-fragalysis-2/maxwin/BulkDock/SCRATCH/511020/C8671-P107/C8671-P107.minimised.mol

>  <scratch_subdir>  (1019) 
/opt/xchem-fragalysis-2/maxwin/BulkDock/SCRATCH/511020/C8671-P107

>  <fragmenstein_runtime>  (1019) 
16.06334376335144

>  <fragmenstein_outcome>  (1019) 
too moved

>  <fragmenstein_mode>  (1019) 
expansion

>  <fragmenstein_error>  (1019) 


$$$$
C8672-P80
     RDKit          3D

 35 37  0  0  0  0  0  0  0  0999 V2000
   -0.3072  -18.8352   18.8787 C   0  0  0  0  0  0  0  0  0  0  0  0
   -1.5165  -19.0702   18.2676 C   0  0  0  0  0  0  0  0  0  0  0  0
   -2.3867  -18.2065   18.8674 N   0  0  0  0  0  0  0  0  0  0  0  0
   -3.8396  -18.2276   18.7975 C   0  0  0  0  0  0  0  0  0  0  0  0
   -4.4670  -19.2807   19.7376 C   0  0  0  0  0  0  0  0  0  0  0  0
   -5.9265  -18.9567   20.1026 C   0  0  0  0  0  0  0  0  0  0  0  0
   -6.6027  -20.0457   20.9668 C   0  0  0  0  0  0  0  0  0  0  0  0
   -7.7369  -19.4667   21.6780 N   0  0  0  0  0  0  0  0  0  0  0  0
   -9.0460  -19.9117   21.8241 C   0  0  0  0  0  0  0  0  0  0  0  0
   -9.4840  -21.1532   21.5463 C   0  0  0  0  0  0  0  0  0  0  0  0
  -10.9020  -21.4439   21.8906 C   0  0  0  0  0  0  0  0  0  0  0  0
  -11.7478  -20.6541   22.4690 N   0  0  0  0  0  0  0  0  0  0  0  0
  -11.2955  -19.3998   22.7223 C   0  0  0  0  0  0  0  0  0  0  0  0
  -11.9219  -18.4005   23.3152 N   0  0  0  0  0  0  0  0  0  0  0  0
  -11.0894  -17.3196   23.2470 C   0  0  0  0  0  0  0  0  0  0  0  0
   -9.8736  -17.6899   22.7310 C   0  0  0  0  0  0  0  0  0  0  0  0
   -9.9937  -19.0202   22.3879 N   0  0  0  0  0  0  0  0  0  0  0  0
   -1.6524  -17.3811   19.6597 C   0  0  0  0  0  0  0  0  0  0  0  0
   -0.4172  -17.8060   19.7789 N   0  0  0  0  0  0  0  0  0  0  0  0
    0.6236  -19.3651   18.7213 H   0  0  0  0  0  0  0  0  0  0  0  0
   -1.8252  -19.8047   17.5380 H   0  0  0  0  0  0  0  0  0  0  0  0
   -4.1863  -17.2215   19.0580 H   0  0  0  0  0  0  0  0  0  0  0  0
   -4.1198  -18.4187   17.7557 H   0  0  0  0  0  0  0  0  0  0  0  0
   -4.4099  -20.2674   19.2621 H   0  0  0  0  0  0  0  0  0  0  0  0
   -3.8848  -19.3457   20.6658 H   0  0  0  0  0  0  0  0  0  0  0  0
   -5.9387  -17.9980   20.6374 H   0  0  0  0  0  0  0  0  0  0  0  0
   -6.5167  -18.8098   19.1896 H   0  0  0  0  0  0  0  0  0  0  0  0
   -5.8962  -20.4317   21.7096 H   0  0  0  0  0  0  0  0  0  0  0  0
   -6.9062  -20.8812   20.3275 H   0  0  0  0  0  0  0  0  0  0  0  0
   -7.5140  -18.6090   22.1759 H   0  0  0  0  0  0  0  0  0  0  0  0
   -8.8737  -21.9496   21.1477 H   0  0  0  0  0  0  0  0  0  0  0  0
  -11.2459  -22.4435   21.5997 H   0  0  0  0  0  0  0  0  0  0  0  0
  -11.3978  -16.3434   23.6004 H   0  0  0  0  0  0  0  0  0  0  0  0
   -8.9778  -17.1193   22.5422 H   0  0  0  0  0  0  0  0  0  0  0  0
   -2.0685  -16.4929   20.1000 H   0  0  0  0  0  0  0  0  0  0  0  0
  1  2  2  0
  2  3  1  0
  3  4  1  0
  4  5  1  0
  5  6  1  0
  6  7  1  0
  7  8  1  0
  8  9  1  0
  9 10  2  0
 10 11  1  0
 11 12  2  0
 12 13  1  0
 13 14  2  0
 14 15  1  0
 15 16  2  0
 16 17  1  0
  3 18  1  0
 18 19  2  0
 19  1  1  0
 17  9  1  0
 17 13  1  0
  1 20  1  0
  2 21  1  0
  4 22  1  0
  4 23  1  0
  5 24  1  0
  5 25  1  0
  6 26  1  0
  6 27  1  0
  7 28  1  0
  7 29  1  0
  8 30  1  0
 10 31  1  0
 11 32  1  0
 15 33  1  0
 16 34  1  0
 18 35  1  0
M  END
>  <Energy>  (1020) 
50.575681348949502

>  <compound_id>  (1020) 
8672

>  <target_id>  (1020) 
1

>  <reference_id>  (1020) 
80

>  <inspiration_ids>  (1020) 
[80, 107]

>  <energy_score>  (1020) 
-23.77609921158006

>  <distance_score>  (1020) 
14.797576305897548

>  <path>  (1020) 
/opt/xchem-fragalysis-2/maxwin/BulkDock/SCRATCH/511020/C8672-P80/C8672-P80.minimised.mol

>  <scratch_subdir>  (1020) 
/opt/xchem-fragalysis-2/maxwin/BulkDock/SCRATCH/511020/C8672-P80

>  <fragmenstein_runtime>  (1020) 
22.603134632110596

>  <fragmenstein_outcome>  (1020) 
too moved

>  <fragmenstein_mode>  (1020) 
expansion

>  <fragmenstein_error>  (1020) 


$$$$
C8672-P107
     RDKit          3D

 35 37  0  0  0  0  0  0  0  0999 V2000
    4.7149  -12.6297   20.5250 C   0  0  0  0  0  0  0  0  0  0  0  0
    3.6319  -13.0480   21.2715 C   0  0  0  0  0  0  0  0  0  0  0  0
    3.3460  -12.3650   22.5716 N   0  0  0  0  0  0  0  0  0  0  0  0
    2.6710  -13.2208   23.9578 C   0  0  0  0  0  0  0  0  0  0  0  0
    1.1796  -13.5096   25.3026 C   0  0  0  0  0  0  0  0  0  0  0  0
   -0.7015  -14.1671   24.6793 C   0  0  0  0  0  0  0  0  0  0  0  0
   -2.3240  -14.7022   25.5870 C   0  0  0  0  0  0  0  0  0  0  0  0
   -3.1825  -15.8694   25.0862 N   0  0  0  0  0  0  0  0  0  0  0  0
   -4.4437  -16.2006   25.7113 C   0  0  0  0  0  0  0  0  0  0  0  0
   -5.5881  -15.5716   25.3715 C   0  0  0  0  0  0  0  0  0  0  0  0
   -6.8499  -16.0237   26.0212 C   0  0  0  0  0  0  0  0  0  0  0  0
   -6.9860  -17.0137   26.8403 N   0  0  0  0  0  0  0  0  0  0  0  0
   -5.8438  -17.6982   27.1235 C   0  0  0  0  0  0  0  0  0  0  0  0
   -5.7290  -18.8018   27.8303 N   0  0  0  0  0  0  0  0  0  0  0  0
   -4.3897  -19.0650   27.8949 C   0  0  0  0  0  0  0  0  0  0  0  0
   -3.6733  -18.1688   27.1379 C   0  0  0  0  0  0  0  0  0  0  0  0
   -4.5940  -17.2922   26.6167 N   0  0  0  0  0  0  0  0  0  0  0  0
    4.3427  -11.3561   22.2592 C   0  0  0  0  0  0  0  0  0  0  0  0
    5.1483  -11.5371   21.1386 N   0  0  0  0  0  0  0  0  0  0  0  0
    5.1261  -13.0084   19.6063 H   0  0  0  0  0  0  0  0  0  0  0  0
    3.0318  -13.8909   21.0734 H   0  0  0  0  0  0  0  0  0  0  0  0
    3.5722  -13.4480   24.5031 H   0  0  0  0  0  0  0  0  0  0  0  0
    2.7300  -14.1767   23.4069 H   0  0  0  0  0  0  0  0  0  0  0  0
    1.4734  -13.9984   26.2391 H   0  0  0  0  0  0  0  0  0  0  0  0
    1.1323  -12.5414   25.8713 H   0  0  0  0  0  0  0  0  0  0  0  0
   -1.1943  -13.3431   25.2479 H   0  0  0  0  0  0  0  0  0  0  0  0
   -0.6760  -14.2638   23.6109 H   0  0  0  0  0  0  0  0  0  0  0  0
   -3.0166  -13.8406   25.5640 H   0  0  0  0  0  0  0  0  0  0  0  0
   -2.1490  -14.8565   26.6619 H   0  0  0  0  0  0  0  0  0  0  0  0
   -3.4114  -15.6034   24.1244 H   0  0  0  0  0  0  0  0  0  0  0  0
   -5.6448  -14.7497   24.6710 H   0  0  0  0  0  0  0  0  0  0  0  0
   -7.7423  -15.4329   25.7543 H   0  0  0  0  0  0  0  0  0  0  0  0
   -4.0074  -19.8950   28.4757 H   0  0  0  0  0  0  0  0  0  0  0  0
   -2.6190  -18.0698   26.9308 H   0  0  0  0  0  0  0  0  0  0  0  0
    4.7990  -10.6015   22.8850 H   0  0  0  0  0  0  0  0  0  0  0  0
  1  2  2  0
  2  3  1  0
  3  4  1  0
  4  5  1  0
  5  6  1  0
  6  7  1  0
  7  8  1  0
  8  9  1  0
  9 10  2  0
 10 11  1  0
 11 12  2  0
 12 13  1  0
 13 14  2  0
 14 15  1  0
 15 16  2  0
 16 17  1  0
  3 18  1  0
 18 19  2  0
 19  1  1  0
 17  9  1  0
 17 13  1  0
  1 20  1  0
  2 21  1  0
  4 22  1  0
  4 23  1  0
  5 24  1  0
  5 25  1  0
  6 26  1  0
  6 27  1  0
  7 28  1  0
  7 29  1  0
  8 30  1  0
 10 31  1  0
 11 32  1  0
 15 33  1  0
 16 34  1  0
 18 35  1  0
M  END
>  <Energy>  (1021) 
398.65384279544691

>  <compound_id>  (1021) 
8672

>  <target_id>  (1021) 
1

>  <reference_id>  (1021) 
107

>  <inspiration_ids>  (1021) 
[80, 107]

>  <energy_score>  (1021) 
324.30206223490825

>  <distance_score>  (1021) 
11.868750709999928

>  <path>  (1021) 
/opt/xchem-fragalysis-2/maxwin/BulkDock/SCRATCH/511020/C8672-P107/C8672-P107.minimised.mol

>  <scratch_subdir>  (1021) 
/opt/xchem-fragalysis-2/maxwin/BulkDock/SCRATCH/511020/C8672-P107

>  <fragmenstein_runtime>  (1021) 
17.83987808227539

>  <fragmenstein_outcome>  (1021) 
too moved

>  <fragmenstein_mode>  (1021) 
expansion

>  <fragmenstein_error>  (1021) 


$$$$
C8673-P80
     RDKit          3D

 44 46  0  0  0  0  0  0  0  0999 V2000
   -3.8636  -17.0387   16.5485 C   0  0  0  0  0  0  0  0  0  0  0  0
   -3.1424  -18.0442   15.6634 C   0  0  0  0  0  0  0  0  0  0  0  0
   -2.6308  -19.2659   16.4269 C   0  0  0  0  0  0  0  0  0  0  0  0
   -1.3903  -19.0444   17.1488 N   0  0  0  0  0  0  0  0  0  0  0  0
   -0.1445  -19.1344   16.5715 C   0  0  0  0  0  0  0  0  0  0  0  0
    0.7330  -19.0772   17.6205 C   0  0  0  0  0  0  0  0  0  0  0  0
    0.0598  -18.8541   18.7949 N   0  0  0  0  0  0  0  0  0  0  0  0
   -1.2299  -18.9054   18.5166 C   0  0  0  0  0  0  0  0  0  0  0  0
   -2.3636  -18.7816   19.5214 C   0  0  0  0  0  0  0  0  0  0  0  0
   -2.7693  -20.0827   20.2654 C   0  0  0  0  0  0  0  0  0  0  0  0
   -4.0563  -19.8721   21.1247 C   0  0  0  0  0  0  0  0  0  0  0  0
   -4.3891  -20.9704   22.0934 N   0  0  0  0  0  0  0  0  0  0  0  0
   -3.2770  -21.3236   22.9902 C   0  0  0  0  0  0  0  0  0  0  0  0
   -5.6192  -21.6817   22.1382 C   0  0  0  0  0  0  0  0  0  0  0  0
   -5.6671  -23.0045   22.4043 C   0  0  0  0  0  0  0  0  0  0  0  0
   -7.0025  -23.6479   22.4403 C   0  0  0  0  0  0  0  0  0  0  0  0
   -8.1429  -23.0741   22.2393 N   0  0  0  0  0  0  0  0  0  0  0  0
   -8.0964  -21.7431   21.9762 C   0  0  0  0  0  0  0  0  0  0  0  0
   -9.1135  -20.9273   21.7655 N   0  0  0  0  0  0  0  0  0  0  0  0
   -8.5781  -19.6739   21.6880 C   0  0  0  0  0  0  0  0  0  0  0  0
   -7.2158  -19.7118   21.8541 C   0  0  0  0  0  0  0  0  0  0  0  0
   -6.8781  -21.0435   21.9636 N   0  0  0  0  0  0  0  0  0  0  0  0
   -4.7175  -17.5035   17.0518 H   0  0  0  0  0  0  0  0  0  0  0  0
   -3.2018  -16.6209   17.3110 H   0  0  0  0  0  0  0  0  0  0  0  0
   -4.2415  -16.2087   15.9430 H   0  0  0  0  0  0  0  0  0  0  0  0
   -3.8511  -18.3867   14.8997 H   0  0  0  0  0  0  0  0  0  0  0  0
   -2.3219  -17.5449   15.1352 H   0  0  0  0  0  0  0  0  0  0  0  0
   -2.4256  -20.0735   15.7125 H   0  0  0  0  0  0  0  0  0  0  0  0
   -3.3835  -19.6519   17.1216 H   0  0  0  0  0  0  0  0  0  0  0  0
   -0.0029  -19.2891   15.5122 H   0  0  0  0  0  0  0  0  0  0  0  0
    1.8047  -19.1890   17.5902 H   0  0  0  0  0  0  0  0  0  0  0  0
   -2.0520  -18.0421   20.2669 H   0  0  0  0  0  0  0  0  0  0  0  0
   -3.2460  -18.3591   19.0309 H   0  0  0  0  0  0  0  0  0  0  0  0
   -2.9494  -20.8907   19.5462 H   0  0  0  0  0  0  0  0  0  0  0  0
   -1.9278  -20.4016   20.8899 H   0  0  0  0  0  0  0  0  0  0  0  0
   -4.8850  -19.7345   20.4215 H   0  0  0  0  0  0  0  0  0  0  0  0
   -3.9595  -18.9431   21.6996 H   0  0  0  0  0  0  0  0  0  0  0  0
   -2.6607  -22.1083   22.5401 H   0  0  0  0  0  0  0  0  0  0  0  0
   -2.6456  -20.4528   23.1981 H   0  0  0  0  0  0  0  0  0  0  0  0
   -3.6512  -21.6809   23.9561 H   0  0  0  0  0  0  0  0  0  0  0  0
   -4.7993  -23.6254   22.5712 H   0  0  0  0  0  0  0  0  0  0  0  0
   -6.9796  -24.7267   22.6411 H   0  0  0  0  0  0  0  0  0  0  0  0
   -9.2042  -18.8047   21.5363 H   0  0  0  0  0  0  0  0  0  0  0  0
   -6.4769  -18.9286   21.8990 H   0  0  0  0  0  0  0  0  0  0  0  0
  1  2  1  0
  2  3  1  0
  3  4  1  0
  4  5  1  0
  5  6  2  0
  6  7  1  0
  7  8  2  0
  8  9  1  0
  9 10  1  0
 10 11  1  0
 11 12  1  0
 12 13  1  0
 12 14  1  0
 14 15  2  0
 15 16  1  0
 16 17  2  0
 17 18  1  0
 18 19  2  0
 19 20  1  0
 20 21  2  0
 21 22  1  0
  8  4  1  0
 22 14  1  0
 22 18  1  0
  1 23  1  0
  1 24  1  0
  1 25  1  0
  2 26  1  0
  2 27  1  0
  3 28  1  0
  3 29  1  0
  5 30  1  0
  6 31  1  0
  9 32  1  0
  9 33  1  0
 10 34  1  0
 10 35  1  0
 11 36  1  0
 11 37  1  0
 13 38  1  0
 13 39  1  0
 13 40  1  0
 15 41  1  0
 16 42  1  0
 20 43  1  0
 21 44  1  0
M  END
>  <Energy>  (1022) 
55.583436181245794

>  <compound_id>  (1022) 
8673

>  <target_id>  (1022) 
1

>  <reference_id>  (1022) 
80

>  <inspiration_ids>  (1022) 
[80, 107]

>  <energy_score>  (1022) 
-31.973486748186815

>  <distance_score>  (1022) 
14.980946045790938

>  <path>  (1022) 
/opt/xchem-fragalysis-2/maxwin/BulkDock/SCRATCH/511020/C8673-P80/C8673-P80.minimised.mol

>  <scratch_subdir>  (1022) 
/opt/xchem-fragalysis-2/maxwin/BulkDock/SCRATCH/511020/C8673-P80

>  <fragmenstein_runtime>  (1022) 
33.43928265571594

>  <fragmenstein_outcome>  (1022) 
too moved

>  <fragmenstein_mode>  (1022) 
expansion

>  <fragmenstein_error>  (1022) 


$$$$
C8673-P107
     RDKit          3D

 44 46  0  0  0  0  0  0  0  0999 V2000
    4.8433  -12.9550   19.3362 C   0  0  0  0  0  0  0  0  0  0  0  0
    4.6454  -12.8757   20.7597 C   0  0  0  0  0  0  0  0  0  0  0  0
    3.3017  -13.6446   21.4694 C   0  0  0  0  0  0  0  0  0  0  0  0
    2.7333  -14.1451   23.2070 N   0  0  0  0  0  0  0  0  0  0  0  0
    3.2380  -13.0196   23.7979 C   0  0  0  0  0  0  0  0  0  0  0  0
    2.1508  -12.4021   24.1788 C   0  0  0  0  0  0  0  0  0  0  0  0
    1.6376  -13.2110   25.0399 N   0  0  0  0  0  0  0  0  0  0  0  0
    1.0457  -13.9864   24.0190 C   0  0  0  0  0  0  0  0  0  0  0  0
   -0.7656  -14.4013   24.3136 C   0  0  0  0  0  0  0  0  0  0  0  0
   -1.8284  -13.7571   25.7329 C   0  0  0  0  0  0  0  0  0  0  0  0
   -2.8403  -14.7101   26.5994 C   0  0  0  0  0  0  0  0  0  0  0  0
   -3.8974  -15.5749   25.9291 N   0  0  0  0  0  0  0  0  0  0  0  0
   -4.7913  -14.8145   25.0405 C   0  0  0  0  0  0  0  0  0  0  0  0
   -4.4515  -16.7324   26.6001 C   0  0  0  0  0  0  0  0  0  0  0  0
   -3.8398  -17.9317   26.5264 C   0  0  0  0  0  0  0  0  0  0  0  0
   -4.5738  -19.1125   27.0536 C   0  0  0  0  0  0  0  0  0  0  0  0
   -5.7657  -19.1212   27.5555 N   0  0  0  0  0  0  0  0  0  0  0  0
   -6.3636  -17.9058   27.6799 C   0  0  0  0  0  0  0  0  0  0  0  0
   -7.5732  -17.6450   28.1368 N   0  0  0  0  0  0  0  0  0  0  0  0
   -7.7041  -16.2906   28.1056 C   0  0  0  0  0  0  0  0  0  0  0  0
   -6.5833  -15.7045   27.5713 C   0  0  0  0  0  0  0  0  0  0  0  0
   -5.7283  -16.7327   27.2438 N   0  0  0  0  0  0  0  0  0  0  0  0
    3.9586  -12.9284   18.7196 H   0  0  0  0  0  0  0  0  0  0  0  0
    5.5443  -12.1494   19.0977 H   0  0  0  0  0  0  0  0  0  0  0  0
    5.3573  -13.8884   19.1107 H   0  0  0  0  0  0  0  0  0  0  0  0
    4.7551  -11.8545   21.0980 H   0  0  0  0  0  0  0  0  0  0  0  0
    5.6159  -13.2956   20.9324 H   0  0  0  0  0  0  0  0  0  0  0  0
    2.6481  -14.2362   20.7978 H   0  0  0  0  0  0  0  0  0  0  0  0
    3.0486  -12.6452   21.7125 H   0  0  0  0  0  0  0  0  0  0  0  0
    3.8197  -12.4346   23.1553 H   0  0  0  0  0  0  0  0  0  0  0  0
    1.6513  -11.7610   23.5074 H   0  0  0  0  0  0  0  0  0  0  0  0
   -1.0983  -14.6312   23.3379 H   0  0  0  0  0  0  0  0  0  0  0  0
   -1.1502  -15.3849   24.4757 H   0  0  0  0  0  0  0  0  0  0  0  0
   -1.1447  -13.3009   26.4695 H   0  0  0  0  0  0  0  0  0  0  0  0
   -2.4473  -12.8917   25.4704 H   0  0  0  0  0  0  0  0  0  0  0  0
   -2.2716  -15.3218   27.3061 H   0  0  0  0  0  0  0  0  0  0  0  0
   -3.3896  -14.0178   27.2542 H   0  0  0  0  0  0  0  0  0  0  0  0
   -5.0646  -13.8484   25.4763 H   0  0  0  0  0  0  0  0  0  0  0  0
   -5.7097  -15.3670   24.8125 H   0  0  0  0  0  0  0  0  0  0  0  0
   -4.3013  -14.6479   24.0805 H   0  0  0  0  0  0  0  0  0  0  0  0
   -2.8955  -18.0983   26.0327 H   0  0  0  0  0  0  0  0  0  0  0  0
   -4.0336  -20.0698   26.9605 H   0  0  0  0  0  0  0  0  0  0  0  0
   -8.5977  -15.8009   28.4690 H   0  0  0  0  0  0  0  0  0  0  0  0
   -6.3214  -14.6717   27.4067 H   0  0  0  0  0  0  0  0  0  0  0  0
  1  2  1  0
  2  3  1  0
  3  4  1  0
  4  5  1  0
  5  6  2  0
  6  7  1  0
  7  8  2  0
  8  9  1  0
  9 10  1  0
 10 11  1  0
 11 12  1  0
 12 13  1  0
 12 14  1  0
 14 15  2  0
 15 16  1  0
 16 17  2  0
 17 18  1  0
 18 19  2  0
 19 20  1  0
 20 21  2  0
 21 22  1  0
  8  4  1  0
 22 14  1  0
 22 18  1  0
  1 23  1  0
  1 24  1  0
  1 25  1  0
  2 26  1  0
  2 27  1  0
  3 28  1  0
  3 29  1  0
  5 30  1  0
  6 31  1  0
  9 32  1  0
  9 33  1  0
 10 34  1  0
 10 35  1  0
 11 36  1  0
 11 37  1  0
 13 38  1  0
 13 39  1  0
 13 40  1  0
 15 41  1  0
 16 42  1  0
 20 43  1  0
 21 44  1  0
M  END
>  <Energy>  (1023) 
511.2541334761213

>  <compound_id>  (1023) 
8673

>  <target_id>  (1023) 
1

>  <reference_id>  (1023) 
107

>  <inspiration_ids>  (1023) 
[80, 107]

>  <energy_score>  (1023) 
423.69721054669117

>  <distance_score>  (1023) 
12.907647052422607

>  <path>  (1023) 
/opt/xchem-fragalysis-2/maxwin/BulkDock/SCRATCH/511020/C8673-P107/C8673-P107.minimised.mol

>  <scratch_subdir>  (1023) 
/opt/xchem-fragalysis-2/maxwin/BulkDock/SCRATCH/511020/C8673-P107

>  <fragmenstein_runtime>  (1023) 
40.000980377197266

>  <fragmenstein_outcome>  (1023) 
too moved

>  <fragmenstein_mode>  (1023) 
expansion

>  <fragmenstein_error>  (1023) 


$$$$
C8671-P80
     RDKit          3D

 35 38  0  0  0  0  0  0  0  0999 V2000
    2.5817  -14.6383   18.8915 C   0  0  0  0  0  0  0  0  0  0  0  0
    3.7152  -14.2980   18.3889 C   0  0  0  0  0  0  0  0  0  0  0  0
    4.3998  -13.4675   19.1273 N   0  0  0  0  0  0  0  0  0  0  0  0
    4.3188  -13.0283   20.4881 C   0  0  0  0  0  0  0  0  0  0  0  0
    5.3920  -12.1470   20.4624 N   0  0  0  0  0  0  0  0  0  0  0  0
    6.6970  -12.1967   20.5522 C   0  0  0  0  0  0  0  0  0  0  0  0
    7.2138  -11.1258   19.6983 C   0  0  0  0  0  0  0  0  0  0  0  0
    6.2854  -10.6184   19.0709 N   0  0  0  0  0  0  0  0  0  0  0  0
    5.6382  -11.6781   19.2301 C   0  0  0  0  0  0  0  0  0  0  0  0
    3.2936  -13.6082   21.3477 C   0  0  0  0  0  0  0  0  0  0  0  0
    2.8886  -13.8376   23.2616 C   0  0  0  0  0  0  0  0  0  0  0  0
    1.0962  -13.9520   23.9485 N   0  0  0  0  0  0  0  0  0  0  0  0
    0.0617  -14.3873   25.3851 C   0  0  0  0  0  0  0  0  0  0  0  0
   -1.1627  -14.9903   25.1938 C   0  0  0  0  0  0  0  0  0  0  0  0
   -2.3649  -14.6857   26.0508 C   0  0  0  0  0  0  0  0  0  0  0  0
   -2.2997  -14.3065   27.2707 N   0  0  0  0  0  0  0  0  0  0  0  0
   -1.0248  -14.1621   27.7166 C   0  0  0  0  0  0  0  0  0  0  0  0
   -0.6902  -14.0941   28.9849 N   0  0  0  0  0  0  0  0  0  0  0  0
    0.6497  -13.9254   28.9957 C   0  0  0  0  0  0  0  0  0  0  0  0
    1.1599  -13.8697   27.7197 C   0  0  0  0  0  0  0  0  0  0  0  0
    0.1304  -14.0726   26.8359 N   0  0  0  0  0  0  0  0  0  0  0  0
    2.4089  -14.4971   20.3565 C   0  0  0  0  0  0  0  0  0  0  0  0
    2.0255  -15.1945   18.2496 H   0  0  0  0  0  0  0  0  0  0  0  0
    4.1814  -14.8586   17.6150 H   0  0  0  0  0  0  0  0  0  0  0  0
    7.3153  -12.9327   20.9827 H   0  0  0  0  0  0  0  0  0  0  0  0
    8.2490  -10.8443   19.4461 H   0  0  0  0  0  0  0  0  0  0  0  0
    4.9750  -11.9344   18.4728 H   0  0  0  0  0  0  0  0  0  0  0  0
    3.1814  -12.8812   23.6825 H   0  0  0  0  0  0  0  0  0  0  0  0
    3.4164  -14.7464   23.5449 H   0  0  0  0  0  0  0  0  0  0  0  0
    1.2731  -13.0459   24.4625 H   0  0  0  0  0  0  0  0  0  0  0  0
   -1.1029  -16.0175   25.5975 H   0  0  0  0  0  0  0  0  0  0  0  0
   -3.3429  -14.8527   25.5693 H   0  0  0  0  0  0  0  0  0  0  0  0
    1.2012  -13.8588   29.9250 H   0  0  0  0  0  0  0  0  0  0  0  0
    2.1816  -13.8232   27.4029 H   0  0  0  0  0  0  0  0  0  0  0  0
    1.6413  -15.1655   20.6867 H   0  0  0  0  0  0  0  0  0  0  0  0
  1  2  2  0
  2  3  1  0
  3  4  2  0
  4  5  1  0
  5  6  1  0
  6  7  2  0
  7  8  1  0
  8  9  2  0
  4 10  1  0
 10 11  1  0
 11 12  1  0
 12 13  1  0
 13 14  2  0
 14 15  1  0
 15 16  2  0
 16 17  1  0
 17 18  2  0
 18 19  1  0
 19 20  2  0
 20 21  1  0
 10 22  2  0
 22  1  1  0
  9  5  1  0
 21 13  1  0
 21 17  1  0
  1 23  1  0
  2 24  1  0
  6 25  1  0
  7 26  1  0
  9 27  1  0
 11 28  1  0
 11 29  1  0
 12 30  1  0
 14 31  1  0
 15 32  1  0
 19 33  1  0
 20 34  1  0
 22 35  1  0
M  END
>  <Energy>  (1024) 
566.2985683019715

>  <compound_id>  (1024) 
8671

>  <target_id>  (1024) 
1

>  <reference_id>  (1024) 
80

>  <inspiration_ids>  (1024) 
[80, 107]

>  <energy_score>  (1024) 
426.9274145651659

>  <distance_score>  (1024) 
14.010507488209468

>  <path>  (1024) 
/opt/xchem-fragalysis-2/maxwin/BulkDock/SCRATCH/511020/C8671-P80/C8671-P80.minimised.mol

>  <scratch_subdir>  (1024) 
/opt/xchem-fragalysis-2/maxwin/BulkDock/SCRATCH/511020/C8671-P80

>  <fragmenstein_runtime>  (1024) 
17.196000814437866

>  <fragmenstein_outcome>  (1024) 
too moved

>  <fragmenstein_mode>  (1024) 
expansion

>  <fragmenstein_error>  (1024) 


$$$$
C8671-P107
     RDKit          3D

 35 38  0  0  0  0  0  0  0  0999 V2000
    3.2002  -14.5639   22.9893 C   0  0  0  0  0  0  0  0  0  0  0  0
    3.3049  -13.7351   21.5707 C   0  0  0  0  0  0  0  0  0  0  0  0
    3.8523  -12.5421   21.4237 N   0  0  0  0  0  0  0  0  0  0  0  0
    3.7433  -11.7460   22.4840 C   0  0  0  0  0  0  0  0  0  0  0  0
    5.0119  -10.3646   22.1945 N   0  0  0  0  0  0  0  0  0  0  0  0
    4.8754   -8.2706   21.9480 C   0  0  0  0  0  0  0  0  0  0  0  0
    5.3375   -8.0008   19.9464 C   0  0  0  0  0  0  0  0  0  0  0  0
    5.4849   -9.9053   19.2363 N   0  0  0  0  0  0  0  0  0  0  0  0
    5.6709  -11.0476   20.5371 C   0  0  0  0  0  0  0  0  0  0  0  0
    3.1672  -12.7015   23.8279 C   0  0  0  0  0  0  0  0  0  0  0  0
    1.8079  -12.8747   24.8166 C   0  0  0  0  0  0  0  0  0  0  0  0
    1.2099  -13.5651   26.4084 N   0  0  0  0  0  0  0  0  0  0  0  0
   -0.1300  -14.2133   26.7548 C   0  0  0  0  0  0  0  0  0  0  0  0
   -1.3229  -13.6076   26.5514 C   0  0  0  0  0  0  0  0  0  0  0  0
   -2.6124  -14.3270   26.7567 C   0  0  0  0  0  0  0  0  0  0  0  0
   -2.7613  -15.5100   27.2423 N   0  0  0  0  0  0  0  0  0  0  0  0
   -1.6092  -16.0757   27.6876 C   0  0  0  0  0  0  0  0  0  0  0  0
   -1.5165  -17.2077   28.3542 N   0  0  0  0  0  0  0  0  0  0  0  0
   -0.2104  -17.3152   28.7128 C   0  0  0  0  0  0  0  0  0  0  0  0
    0.5289  -16.2594   28.2272 C   0  0  0  0  0  0  0  0  0  0  0  0
   -0.3284  -15.4645   27.4951 N   0  0  0  0  0  0  0  0  0  0  0  0
    3.5410  -13.9536   24.0836 C   0  0  0  0  0  0  0  0  0  0  0  0
    3.5295  -15.5867   23.1039 H   0  0  0  0  0  0  0  0  0  0  0  0
    2.7712  -14.1344   20.7031 H   0  0  0  0  0  0  0  0  0  0  0  0
    4.7544   -7.7509   22.9404 H   0  0  0  0  0  0  0  0  0  0  0  0
    6.4464   -7.7135   19.7276 H   0  0  0  0  0  0  0  0  0  0  0  0
    5.7224  -12.1236   20.4333 H   0  0  0  0  0  0  0  0  0  0  0  0
    1.2782  -13.6228   24.2248 H   0  0  0  0  0  0  0  0  0  0  0  0
    1.5968  -11.8491   24.9609 H   0  0  0  0  0  0  0  0  0  0  0  0
    2.0076  -13.8904   26.9445 H   0  0  0  0  0  0  0  0  0  0  0  0
   -1.4280  -12.5884   26.2494 H   0  0  0  0  0  0  0  0  0  0  0  0
   -3.5054  -13.7757   26.4164 H   0  0  0  0  0  0  0  0  0  0  0  0
    0.1395  -18.1413   29.3189 H   0  0  0  0  0  0  0  0  0  0  0  0
    1.5675  -16.0022   28.3606 H   0  0  0  0  0  0  0  0  0  0  0  0
    3.9563  -14.3535   25.0002 H   0  0  0  0  0  0  0  0  0  0  0  0
  1  2  2  0
  2  3  1  0
  3  4  2  0
  4  5  1  0
  5  6  1  0
  6  7  2  0
  7  8  1  0
  8  9  2  0
  4 10  1  0
 10 11  1  0
 11 12  1  0
 12 13  1  0
 13 14  2  0
 14 15  1  0
 15 16  2  0
 16 17  1  0
 17 18  2  0
 18 19  1  0
 19 20  2  0
 20 21  1  0
 10 22  2  0
 22  1  1  0
  9  5  1  0
 21 13  1  0
 21 17  1  0
  1 23  1  0
  2 24  1  0
  6 25  1  0
  7 26  1  0
  9 27  1  0
 11 28  1  0
 11 29  1  0
 12 30  1  0
 14 31  1  0
 15 32  1  0
 19 33  1  0
 20 34  1  0
 22 35  1  0
M  END
>  <Energy>  (1025) 
1132.3922433342182

>  <compound_id>  (1025) 
8671

>  <target_id>  (1025) 
1

>  <reference_id>  (1025) 
107

>  <inspiration_ids>  (1025) 
[80, 107]

>  <energy_score>  (1025) 
993.0210895974323

>  <distance_score>  (1025) 
13.255291007824436

>  <path>  (1025) 
/opt/xchem-fragalysis-2/maxwin/BulkDock/SCRATCH/511020/C8671-P107/C8671-P107.minimised.mol

>  <scratch_subdir>  (1025) 
/opt/xchem-fragalysis-2/maxwin/BulkDock/SCRATCH/511020/C8671-P107

>  <fragmenstein_runtime>  (1025) 
16.111915588378906

>  <fragmenstein_outcome>  (1025) 
too moved

>  <fragmenstein_mode>  (1025) 
expansion

>  <fragmenstein_error>  (1025) 


$$$$
C8667-P80
     RDKit          3D

 35 37  0  0  0  0  0  0  0  0999 V2000
   -1.2944   -8.9448   21.2726 C   0  0  0  0  0  0  0  0  0  0  0  0
   -2.4019   -8.6612   22.2425 C   0  0  0  0  0  0  0  0  0  0  0  0
   -3.6230   -9.3106   22.4159 C   0  0  0  0  0  0  0  0  0  0  0  0
   -3.9900   -9.0810   23.7295 N   0  0  0  0  0  0  0  0  0  0  0  0
   -4.6835   -9.9692   24.7132 C   0  0  0  0  0  0  0  0  0  0  0  0
   -5.8738  -10.9751   24.3932 C   0  0  0  0  0  0  0  0  0  0  0  0
   -6.1195  -12.1465   25.4985 C   0  0  0  0  0  0  0  0  0  0  0  0
   -6.9586  -13.2865   25.0011 N   0  0  0  0  0  0  0  0  0  0  0  0
   -7.8246  -14.2335   25.6381 C   0  0  0  0  0  0  0  0  0  0  0  0
   -8.9393  -14.6248   24.9775 C   0  0  0  0  0  0  0  0  0  0  0  0
   -9.8487  -15.6005   25.6275 C   0  0  0  0  0  0  0  0  0  0  0  0
   -9.6689  -16.1765   26.7674 N   0  0  0  0  0  0  0  0  0  0  0  0
   -8.5079  -15.8583   27.4036 C   0  0  0  0  0  0  0  0  0  0  0  0
   -8.0584  -16.3760   28.5264 N   0  0  0  0  0  0  0  0  0  0  0  0
   -6.8579  -15.7735   28.7620 C   0  0  0  0  0  0  0  0  0  0  0  0
   -6.5579  -14.8635   27.7728 C   0  0  0  0  0  0  0  0  0  0  0  0
   -7.6045  -14.9012   26.8821 N   0  0  0  0  0  0  0  0  0  0  0  0
   -3.1960   -8.0096   24.1188 C   0  0  0  0  0  0  0  0  0  0  0  0
   -2.2222   -7.7688   23.2669 N   0  0  0  0  0  0  0  0  0  0  0  0
   -1.6130   -8.7411   20.2483 H   0  0  0  0  0  0  0  0  0  0  0  0
   -0.3906   -8.3833   21.5206 H   0  0  0  0  0  0  0  0  0  0  0  0
   -1.0411  -10.0063   21.3396 H   0  0  0  0  0  0  0  0  0  0  0  0
   -4.1288  -10.0419   21.8067 H   0  0  0  0  0  0  0  0  0  0  0  0
   -5.0372   -9.2915   25.5009 H   0  0  0  0  0  0  0  0  0  0  0  0
   -3.8634  -10.5564   25.1447 H   0  0  0  0  0  0  0  0  0  0  0  0
   -6.8016  -10.3938   24.3167 H   0  0  0  0  0  0  0  0  0  0  0  0
   -5.7355  -11.4124   23.4036 H   0  0  0  0  0  0  0  0  0  0  0  0
   -5.1470  -12.5513   25.7958 H   0  0  0  0  0  0  0  0  0  0  0  0
   -6.5958  -11.6977   26.3764 H   0  0  0  0  0  0  0  0  0  0  0  0
   -7.2884  -13.0825   24.0573 H   0  0  0  0  0  0  0  0  0  0  0  0
   -9.2346  -14.2417   24.0105 H   0  0  0  0  0  0  0  0  0  0  0  0
  -10.7668  -15.8246   25.0594 H   0  0  0  0  0  0  0  0  0  0  0  0
   -6.2646  -16.0310   29.6312 H   0  0  0  0  0  0  0  0  0  0  0  0
   -5.7035  -14.2243   27.6178 H   0  0  0  0  0  0  0  0  0  0  0  0
   -3.3294   -7.5120   25.0711 H   0  0  0  0  0  0  0  0  0  0  0  0
  1  2  1  0
  2  3  2  0
  3  4  1  0
  4  5  1  0
  5  6  1  0
  6  7  1  0
  7  8  1  0
  8  9  1  0
  9 10  2  0
 10 11  1  0
 11 12  2  0
 12 13  1  0
 13 14  2  0
 14 15  1  0
 15 16  2  0
 16 17  1  0
  4 18  1  0
 18 19  2  0
 19  2  1  0
 17  9  1  0
 17 13  1  0
  1 20  1  0
  1 21  1  0
  1 22  1  0
  3 23  1  0
  5 24  1  0
  5 25  1  0
  6 26  1  0
  6 27  1  0
  7 28  1  0
  7 29  1  0
  8 30  1  0
 10 31  1  0
 11 32  1  0
 15 33  1  0
 16 34  1  0
 18 35  1  0
M  END
>  <Energy>  (1026) 
74.292140726846768

>  <compound_id>  (1026) 
8667

>  <target_id>  (1026) 
1

>  <reference_id>  (1026) 
80

>  <inspiration_ids>  (1026) 
[80, 107]

>  <energy_score>  (1026) 
-13.014239549677825

>  <distance_score>  (1026) 
13.495394181772708

>  <path>  (1026) 
/opt/xchem-fragalysis-2/maxwin/BulkDock/SCRATCH/511020/C8667-P80/C8667-P80.minimised.mol

>  <scratch_subdir>  (1026) 
/opt/xchem-fragalysis-2/maxwin/BulkDock/SCRATCH/511020/C8667-P80

>  <fragmenstein_runtime>  (1026) 
23.42853021621704

>  <fragmenstein_outcome>  (1026) 
too moved

>  <fragmenstein_mode>  (1026) 
expansion

>  <fragmenstein_error>  (1026) 


$$$$
C8667-P107
     RDKit          3D

 35 37  0  0  0  0  0  0  0  0999 V2000
    4.0773   -5.6070   17.0223 C   0  0  0  0  0  0  0  0  0  0  0  0
    4.0775   -6.8781   17.7787 C   0  0  0  0  0  0  0  0  0  0  0  0
    5.1655   -7.5574   18.3366 C   0  0  0  0  0  0  0  0  0  0  0  0
    4.8284   -9.2299   18.5015 N   0  0  0  0  0  0  0  0  0  0  0  0
    5.6926  -10.8424   19.2844 C   0  0  0  0  0  0  0  0  0  0  0  0
    4.8904  -12.1306   20.6311 C   0  0  0  0  0  0  0  0  0  0  0  0
    3.7188  -12.0800   22.2849 C   0  0  0  0  0  0  0  0  0  0  0  0
    3.0070  -13.1965   23.6822 N   0  0  0  0  0  0  0  0  0  0  0  0
    1.6194  -13.2500   24.8158 C   0  0  0  0  0  0  0  0  0  0  0  0
    0.3036  -14.1755   24.4094 C   0  0  0  0  0  0  0  0  0  0  0  0
   -1.2844  -13.7343   25.4409 C   0  0  0  0  0  0  0  0  0  0  0  0
   -1.3180  -13.0405   26.5354 N   0  0  0  0  0  0  0  0  0  0  0  0
   -0.0900  -12.9357   27.1250 C   0  0  0  0  0  0  0  0  0  0  0  0
   -0.0102  -12.8933   28.4434 N   0  0  0  0  0  0  0  0  0  0  0  0
    1.1578  -13.4768   28.7682 C   0  0  0  0  0  0  0  0  0  0  0  0
    1.9048  -13.7354   27.6500 C   0  0  0  0  0  0  0  0  0  0  0  0
    1.2412  -13.2103   26.4925 N   0  0  0  0  0  0  0  0  0  0  0  0
    3.2318   -9.0733   18.0209 C   0  0  0  0  0  0  0  0  0  0  0  0
    2.9358   -7.8329   17.6741 N   0  0  0  0  0  0  0  0  0  0  0  0
    5.0339   -5.4825   16.5237 H   0  0  0  0  0  0  0  0  0  0  0  0
    3.8232   -4.7684   17.6698 H   0  0  0  0  0  0  0  0  0  0  0  0
    3.3438   -5.6361   16.2085 H   0  0  0  0  0  0  0  0  0  0  0  0
    6.1619   -7.1846   18.5132 H   0  0  0  0  0  0  0  0  0  0  0  0
    6.7650  -10.6413   19.3958 H   0  0  0  0  0  0  0  0  0  0  0  0
    5.6037  -11.4873   18.4431 H   0  0  0  0  0  0  0  0  0  0  0  0
    5.8027  -12.7182   20.7652 H   0  0  0  0  0  0  0  0  0  0  0  0
    4.3323  -12.8016   19.9696 H   0  0  0  0  0  0  0  0  0  0  0  0
    3.1816  -11.2481   22.6549 H   0  0  0  0  0  0  0  0  0  0  0  0
    4.5151  -11.4042   22.6345 H   0  0  0  0  0  0  0  0  0  0  0  0
    2.7224  -13.9551   23.0495 H   0  0  0  0  0  0  0  0  0  0  0  0
   -0.0713  -14.1183   23.3773 H   0  0  0  0  0  0  0  0  0  0  0  0
   -2.1174  -14.4603   25.2797 H   0  0  0  0  0  0  0  0  0  0  0  0
    1.4230  -13.6806   29.7973 H   0  0  0  0  0  0  0  0  0  0  0  0
    2.8864  -14.1777   27.5735 H   0  0  0  0  0  0  0  0  0  0  0  0
    2.6501   -9.9535   17.8571 H   0  0  0  0  0  0  0  0  0  0  0  0
  1  2  1  0
  2  3  2  0
  3  4  1  0
  4  5  1  0
  5  6  1  0
  6  7  1  0
  7  8  1  0
  8  9  1  0
  9 10  2  0
 10 11  1  0
 11 12  2  0
 12 13  1  0
 13 14  2  0
 14 15  1  0
 15 16  2  0
 16 17  1  0
  4 18  1  0
 18 19  2  0
 19  2  1  0
 17  9  1  0
 17 13  1  0
  1 20  1  0
  1 21  1  0
  1 22  1  0
  3 23  1  0
  5 24  1  0
  5 25  1  0
  6 26  1  0
  6 27  1  0
  7 28  1  0
  7 29  1  0
  8 30  1  0
 10 31  1  0
 11 32  1  0
 15 33  1  0
 16 34  1  0
 18 35  1  0
M  END
>  <Energy>  (1027) 
720.9435132960557

>  <compound_id>  (1027) 
8667

>  <target_id>  (1027) 
1

>  <reference_id>  (1027) 
107

>  <inspiration_ids>  (1027) 
[80, 107]

>  <energy_score>  (1027) 
633.6371330195459

>  <distance_score>  (1027) 
14.681465125565714

>  <path>  (1027) 
/opt/xchem-fragalysis-2/maxwin/BulkDock/SCRATCH/511020/C8667-P107/C8667-P107.minimised.mol

>  <scratch_subdir>  (1027) 
/opt/xchem-fragalysis-2/maxwin/BulkDock/SCRATCH/511020/C8667-P107

>  <fragmenstein_runtime>  (1027) 
16.873733282089233

>  <fragmenstein_outcome>  (1027) 
too moved

>  <fragmenstein_mode>  (1027) 
expansion

>  <fragmenstein_error>  (1027) 


$$$$
C8674-P80
     RDKit          3D

 39 42  0  0  0  0  0  0  0  0999 V2000
   -4.9075  -12.3206   25.1973 C   0  0  0  0  0  0  0  0  0  0  0  0
   -5.6189  -12.8917   24.0467 N   0  0  0  0  0  0  0  0  0  0  0  0
   -5.7617  -11.7865   22.9150 C   0  0  0  0  0  0  0  0  0  0  0  0
   -4.5611  -10.8769   22.2779 C   0  0  0  0  0  0  0  0  0  0  0  0
   -3.8747   -9.8513   22.7965 N   0  0  0  0  0  0  0  0  0  0  0  0
   -3.0729   -9.2989   21.7761 C   0  0  0  0  0  0  0  0  0  0  0  0
   -2.2083   -8.1339   21.9479 C   0  0  0  0  0  0  0  0  0  0  0  0
   -1.2080   -7.7991   21.0284 C   0  0  0  0  0  0  0  0  0  0  0  0
   -0.4119   -6.6677   21.2265 C   0  0  0  0  0  0  0  0  0  0  0  0
   -0.6013   -5.8644   22.3486 C   0  0  0  0  0  0  0  0  0  0  0  0
   -1.5922   -6.1856   23.2719 C   0  0  0  0  0  0  0  0  0  0  0  0
   -2.3947   -7.3107   23.0691 C   0  0  0  0  0  0  0  0  0  0  0  0
   -3.2084  -10.0621   20.6432 C   0  0  0  0  0  0  0  0  0  0  0  0
   -4.1541  -11.0145   20.9495 N   0  0  0  0  0  0  0  0  0  0  0  0
   -6.5781  -14.0135   24.2211 C   0  0  0  0  0  0  0  0  0  0  0  0
   -7.2156  -14.5398   23.1495 C   0  0  0  0  0  0  0  0  0  0  0  0
   -8.1834  -15.6526   23.3433 C   0  0  0  0  0  0  0  0  0  0  0  0
   -8.5097  -16.2131   24.4571 N   0  0  0  0  0  0  0  0  0  0  0  0
   -7.8653  -15.7393   25.5579 C   0  0  0  0  0  0  0  0  0  0  0  0
   -8.0196  -16.1804   26.7915 N   0  0  0  0  0  0  0  0  0  0  0  0
   -7.1671  -15.4512   27.5556 C   0  0  0  0  0  0  0  0  0  0  0  0
   -6.4865  -14.5327   26.7890 C   0  0  0  0  0  0  0  0  0  0  0  0
   -6.9124  -14.6842   25.4821 N   0  0  0  0  0  0  0  0  0  0  0  0
   -4.2900  -13.0839   25.6789 H   0  0  0  0  0  0  0  0  0  0  0  0
   -5.6164  -11.8893   25.9108 H   0  0  0  0  0  0  0  0  0  0  0  0
   -4.2259  -11.5187   24.9050 H   0  0  0  0  0  0  0  0  0  0  0  0
   -6.2227  -12.2663   22.0459 H   0  0  0  0  0  0  0  0  0  0  0  0
   -6.4913  -11.0609   23.2988 H   0  0  0  0  0  0  0  0  0  0  0  0
   -1.0200   -8.4144   20.1530 H   0  0  0  0  0  0  0  0  0  0  0  0
    0.3673   -6.4235   20.5090 H   0  0  0  0  0  0  0  0  0  0  0  0
    0.0325   -4.9959   22.5081 H   0  0  0  0  0  0  0  0  0  0  0  0
   -1.7368   -5.5645   24.1514 H   0  0  0  0  0  0  0  0  0  0  0  0
   -3.1695   -7.5452   23.7957 H   0  0  0  0  0  0  0  0  0  0  0  0
   -2.7570  -10.0089   19.6617 H   0  0  0  0  0  0  0  0  0  0  0  0
   -4.5060  -11.7110   20.3081 H   0  0  0  0  0  0  0  0  0  0  0  0
   -7.0706  -14.2119   22.1321 H   0  0  0  0  0  0  0  0  0  0  0  0
   -8.6656  -16.0063   22.4162 H   0  0  0  0  0  0  0  0  0  0  0  0
   -7.0798  -15.6176   28.6223 H   0  0  0  0  0  0  0  0  0  0  0  0
   -5.7490  -13.8104   27.0867 H   0  0  0  0  0  0  0  0  0  0  0  0
  1  2  1  0
  2  3  1  0
  3  4  1  0
  4  5  2  0
  5  6  1  0
  6  7  1  0
  7  8  2  0
  8  9  1  0
  9 10  2  0
 10 11  1  0
 11 12  2  0
  6 13  2  0
 13 14  1  0
  2 15  1  0
 15 16  2  0
 16 17  1  0
 17 18  2  0
 18 19  1  0
 19 20  2  0
 20 21  1  0
 21 22  2  0
 22 23  1  0
 14  4  1  0
 23 15  1  0
 12  7  1  0
 23 19  1  0
  1 24  1  0
  1 25  1  0
  1 26  1  0
  3 27  1  0
  3 28  1  0
  8 29  1  0
  9 30  1  0
 10 31  1  0
 11 32  1  0
 12 33  1  0
 13 34  1  0
 14 35  1  0
 16 36  1  0
 17 37  1  0
 21 38  1  0
 22 39  1  0
M  END
>  <Energy>  (1028) 
107.09054774308855

>  <compound_id>  (1028) 
8674

>  <target_id>  (1028) 
1

>  <reference_id>  (1028) 
80

>  <inspiration_ids>  (1028) 
[80, 107]

>  <energy_score>  (1028) 
-15.654435848831838

>  <distance_score>  (1028) 
14.399166203859078

>  <path>  (1028) 
/opt/xchem-fragalysis-2/maxwin/BulkDock/SCRATCH/511020/C8674-P80/C8674-P80.minimised.mol

>  <scratch_subdir>  (1028) 
/opt/xchem-fragalysis-2/maxwin/BulkDock/SCRATCH/511020/C8674-P80

>  <fragmenstein_runtime>  (1028) 
24.34778070449829

>  <fragmenstein_outcome>  (1028) 
too moved

>  <fragmenstein_mode>  (1028) 
expansion

>  <fragmenstein_error>  (1028) 


$$$$
C8674-P107
     RDKit          3D

 39 42  0  0  0  0  0  0  0  0999 V2000
   -0.6925  -15.3382   17.2202 C   0  0  0  0  0  0  0  0  0  0  0  0
    0.2234  -15.9431   18.2285 N   0  0  0  0  0  0  0  0  0  0  0  0
    1.8720  -15.4154   17.7618 C   0  0  0  0  0  0  0  0  0  0  0  0
    3.1842  -14.3615   18.5885 C   0  0  0  0  0  0  0  0  0  0  0  0
    3.6683  -12.8748   18.4040 N   0  0  0  0  0  0  0  0  0  0  0  0
    5.0746  -12.3138   19.1840 C   0  0  0  0  0  0  0  0  0  0  0  0
    6.0218  -10.7008   18.9996 C   0  0  0  0  0  0  0  0  0  0  0  0
    7.6561  -10.5174   18.1841 C   0  0  0  0  0  0  0  0  0  0  0  0
    7.8667   -9.7525   16.6701 C   0  0  0  0  0  0  0  0  0  0  0  0
    6.7708   -8.5916   16.0045 C   0  0  0  0  0  0  0  0  0  0  0  0
    5.3395   -8.3050   16.7492 C   0  0  0  0  0  0  0  0  0  0  0  0
    4.9427   -9.3681   18.0700 C   0  0  0  0  0  0  0  0  0  0  0  0
    5.3665  -13.5816   19.3458 C   0  0  0  0  0  0  0  0  0  0  0  0
    4.5384  -14.6539   18.4479 N   0  0  0  0  0  0  0  0  0  0  0  0
   -0.3549  -17.1584   18.9043 C   0  0  0  0  0  0  0  0  0  0  0  0
    0.0099  -18.4193   18.5854 C   0  0  0  0  0  0  0  0  0  0  0  0
   -0.6277  -19.5665   19.3111 C   0  0  0  0  0  0  0  0  0  0  0  0
   -1.5497  -19.5202   20.2155 N   0  0  0  0  0  0  0  0  0  0  0  0
   -2.0185  -18.2789   20.5025 C   0  0  0  0  0  0  0  0  0  0  0  0
   -2.9812  -17.9807   21.3585 N   0  0  0  0  0  0  0  0  0  0  0  0
   -3.1981  -16.6478   21.2179 C   0  0  0  0  0  0  0  0  0  0  0  0
   -2.3559  -16.1156   20.2680 C   0  0  0  0  0  0  0  0  0  0  0  0
   -1.5022  -17.1235   19.8499 N   0  0  0  0  0  0  0  0  0  0  0  0
   -0.5361  -15.8178   16.2485 H   0  0  0  0  0  0  0  0  0  0  0  0
   -1.7433  -15.4615   17.4979 H   0  0  0  0  0  0  0  0  0  0  0  0
   -0.5020  -14.2654   17.1225 H   0  0  0  0  0  0  0  0  0  0  0  0
    2.3909  -16.3175   17.4077 H   0  0  0  0  0  0  0  0  0  0  0  0
    1.6291  -14.8494   16.8643 H   0  0  0  0  0  0  0  0  0  0  0  0
    8.5751  -10.8434   18.6903 H   0  0  0  0  0  0  0  0  0  0  0  0
    8.8186   -9.9000   16.1552 H   0  0  0  0  0  0  0  0  0  0  0  0
    7.0113   -8.1361   15.0495 H   0  0  0  0  0  0  0  0  0  0  0  0
    4.5628   -7.6979   16.2949 H   0  0  0  0  0  0  0  0  0  0  0  0
    3.8370   -9.2912   18.0129 H   0  0  0  0  0  0  0  0  0  0  0  0
    6.1613  -14.1265   19.5688 H   0  0  0  0  0  0  0  0  0  0  0  0
    4.7745  -15.6000   18.6554 H   0  0  0  0  0  0  0  0  0  0  0  0
    0.7718  -18.6445   17.8526 H   0  0  0  0  0  0  0  0  0  0  0  0
   -0.2267  -20.5551   19.0291 H   0  0  0  0  0  0  0  0  0  0  0  0
   -3.9696  -16.1386   21.7801 H   0  0  0  0  0  0  0  0  0  0  0  0
   -2.2926  -15.1227   19.8565 H   0  0  0  0  0  0  0  0  0  0  0  0
  1  2  1  0
  2  3  1  0
  3  4  1  0
  4  5  2  0
  5  6  1  0
  6  7  1  0
  7  8  2  0
  8  9  1  0
  9 10  2  0
 10 11  1  0
 11 12  2  0
  6 13  2  0
 13 14  1  0
  2 15  1  0
 15 16  2  0
 16 17  1  0
 17 18  2  0
 18 19  1  0
 19 20  2  0
 20 21  1  0
 21 22  2  0
 22 23  1  0
 14  4  1  0
 23 15  1  0
 12  7  1  0
 23 19  1  0
  1 24  1  0
  1 25  1  0
  1 26  1  0
  3 27  1  0
  3 28  1  0
  8 29  1  0
  9 30  1  0
 10 31  1  0
 11 32  1  0
 12 33  1  0
 13 34  1  0
 14 35  1  0
 16 36  1  0
 17 37  1  0
 21 38  1  0
 22 39  1  0
M  END
>  <Energy>  (1029) 
634.36671588731178

>  <compound_id>  (1029) 
8674

>  <target_id>  (1029) 
1

>  <reference_id>  (1029) 
107

>  <inspiration_ids>  (1029) 
[80, 107]

>  <energy_score>  (1029) 
511.6217322953802

>  <distance_score>  (1029) 
15.441965768461248

>  <path>  (1029) 
/opt/xchem-fragalysis-2/maxwin/BulkDock/SCRATCH/511020/C8674-P107/C8674-P107.minimised.mol

>  <scratch_subdir>  (1029) 
/opt/xchem-fragalysis-2/maxwin/BulkDock/SCRATCH/511020/C8674-P107

>  <fragmenstein_runtime>  (1029) 
15.013635873794556

>  <fragmenstein_outcome>  (1029) 
too moved

>  <fragmenstein_mode>  (1029) 
expansion

>  <fragmenstein_error>  (1029) 


$$$$
C8664-P80
     RDKit          3D

 35 37  0  0  0  0  0  0  0  0999 V2000
   -6.2829  -11.7542   19.6358 C   0  0  0  0  0  0  0  0  0  0  0  0
   -6.1970  -13.2723   19.6829 C   0  0  0  0  0  0  0  0  0  0  0  0
   -4.8678  -13.8415   19.5445 N   0  0  0  0  0  0  0  0  0  0  0  0
   -3.7606  -13.2286   19.0135 C   0  0  0  0  0  0  0  0  0  0  0  0
   -2.7327  -14.0374   19.0117 N   0  0  0  0  0  0  0  0  0  0  0  0
   -3.1787  -15.2101   19.5697 C   0  0  0  0  0  0  0  0  0  0  0  0
   -4.5231  -15.1422   19.9190 C   0  0  0  0  0  0  0  0  0  0  0  0
   -5.5070  -16.2331   20.4189 C   0  0  0  0  0  0  0  0  0  0  0  0
   -5.8857  -16.4098   21.8943 N   0  0  0  0  0  0  0  0  0  0  0  0
   -4.7039  -16.7440   22.7127 C   0  0  0  0  0  0  0  0  0  0  0  0
   -7.1286  -17.0478   22.2599 C   0  0  0  0  0  0  0  0  0  0  0  0
   -7.6919  -18.0534   21.5569 C   0  0  0  0  0  0  0  0  0  0  0  0
   -9.0175  -18.5598   22.0118 C   0  0  0  0  0  0  0  0  0  0  0  0
   -9.7252  -18.1042   22.9958 N   0  0  0  0  0  0  0  0  0  0  0  0
   -9.1560  -17.0822   23.6976 C   0  0  0  0  0  0  0  0  0  0  0  0
   -9.6502  -16.4802   24.7633 N   0  0  0  0  0  0  0  0  0  0  0  0
   -8.6679  -15.6431   25.2092 C   0  0  0  0  0  0  0  0  0  0  0  0
   -7.5734  -15.6881   24.3787 C   0  0  0  0  0  0  0  0  0  0  0  0
   -7.8707  -16.6056   23.3958 N   0  0  0  0  0  0  0  0  0  0  0  0
   -5.9782  -11.3675   18.6579 H   0  0  0  0  0  0  0  0  0  0  0  0
   -5.6465  -11.2950   20.3986 H   0  0  0  0  0  0  0  0  0  0  0  0
   -7.3135  -11.4311   19.8140 H   0  0  0  0  0  0  0  0  0  0  0  0
   -6.8068  -13.7064   18.8828 H   0  0  0  0  0  0  0  0  0  0  0  0
   -6.5938  -13.6163   20.6448 H   0  0  0  0  0  0  0  0  0  0  0  0
   -3.7541  -12.2126   18.6421 H   0  0  0  0  0  0  0  0  0  0  0  0
   -2.5190  -16.0639   19.6621 H   0  0  0  0  0  0  0  0  0  0  0  0
   -5.1121  -17.1977   20.0705 H   0  0  0  0  0  0  0  0  0  0  0  0
   -6.4408  -16.0774   19.8620 H   0  0  0  0  0  0  0  0  0  0  0  0
   -4.9444  -16.7556   23.7801 H   0  0  0  0  0  0  0  0  0  0  0  0
   -4.3230  -17.7344   22.4399 H   0  0  0  0  0  0  0  0  0  0  0  0
   -3.9041  -16.0138   22.5678 H   0  0  0  0  0  0  0  0  0  0  0  0
   -7.2547  -18.4997   20.6756 H   0  0  0  0  0  0  0  0  0  0  0  0
   -9.4198  -19.3969   21.4163 H   0  0  0  0  0  0  0  0  0  0  0  0
   -8.8049  -15.0337   26.0935 H   0  0  0  0  0  0  0  0  0  0  0  0
   -6.6358  -15.1534   24.3888 H   0  0  0  0  0  0  0  0  0  0  0  0
  1  2  1  0
  2  3  1  0
  3  4  1  0
  4  5  2  0
  5  6  1  0
  6  7  2  0
  7  8  1  0
  8  9  1  0
  9 10  1  0
  9 11  1  0
 11 12  2  0
 12 13  1  0
 13 14  2  0
 14 15  1  0
 15 16  2  0
 16 17  1  0
 17 18  2  0
 18 19  1  0
  7  3  1  0
 19 11  1  0
 19 15  1  0
  1 20  1  0
  1 21  1  0
  1 22  1  0
  2 23  1  0
  2 24  1  0
  4 25  1  0
  6 26  1  0
  8 27  1  0
  8 28  1  0
 10 29  1  0
 10 30  1  0
 10 31  1  0
 12 32  1  0
 13 33  1  0
 17 34  1  0
 18 35  1  0
M  END
>  <Energy>  (1030) 
49.404919986069018

>  <compound_id>  (1030) 
8664

>  <target_id>  (1030) 
1

>  <reference_id>  (1030) 
80

>  <inspiration_ids>  (1030) 
[80, 107]

>  <energy_score>  (1030) 
-27.068336473127374

>  <distance_score>  (1030) 
14.918947078969866

>  <path>  (1030) 
/opt/xchem-fragalysis-2/maxwin/BulkDock/SCRATCH/511020/C8664-P80/C8664-P80.minimised.mol

>  <scratch_subdir>  (1030) 
/opt/xchem-fragalysis-2/maxwin/BulkDock/SCRATCH/511020/C8664-P80

>  <fragmenstein_runtime>  (1030) 
26.090691804885864

>  <fragmenstein_outcome>  (1030) 
too moved

>  <fragmenstein_mode>  (1030) 
expansion

>  <fragmenstein_error>  (1030) 


$$$$
C8664-P107
     RDKit          3D

 35 37  0  0  0  0  0  0  0  0999 V2000
   -0.9878   -7.0574   23.2064 C   0  0  0  0  0  0  0  0  0  0  0  0
    0.1308   -8.0622   22.8933 C   0  0  0  0  0  0  0  0  0  0  0  0
   -0.3181   -9.4624   22.5787 N   0  0  0  0  0  0  0  0  0  0  0  0
   -1.3790   -9.5122   21.6848 C   0  0  0  0  0  0  0  0  0  0  0  0
   -1.0466  -10.5528   21.0354 N   0  0  0  0  0  0  0  0  0  0  0  0
    0.2692  -10.4446   21.4495 C   0  0  0  0  0  0  0  0  0  0  0  0
    0.3955  -11.1176   22.7152 C   0  0  0  0  0  0  0  0  0  0  0  0
    1.6109  -11.9638   24.1875 C   0  0  0  0  0  0  0  0  0  0  0  0
    1.0902  -12.7077   26.0078 N   0  0  0  0  0  0  0  0  0  0  0  0
    0.8962  -11.8141   27.2251 C   0  0  0  0  0  0  0  0  0  0  0  0
   -0.0608  -13.9107   26.3739 C   0  0  0  0  0  0  0  0  0  0  0  0
   -1.3968  -13.7970   26.1120 C   0  0  0  0  0  0  0  0  0  0  0  0
   -2.3808  -14.8680   26.4329 C   0  0  0  0  0  0  0  0  0  0  0  0
   -2.1967  -15.8410   27.2503 N   0  0  0  0  0  0  0  0  0  0  0  0
   -0.9860  -15.8007   27.8652 C   0  0  0  0  0  0  0  0  0  0  0  0
   -0.6490  -16.5067   28.9247 N   0  0  0  0  0  0  0  0  0  0  0  0
    0.5972  -16.0869   29.2631 C   0  0  0  0  0  0  0  0  0  0  0  0
    1.0476  -15.1066   28.4093 C   0  0  0  0  0  0  0  0  0  0  0  0
    0.0657  -14.9052   27.4604 N   0  0  0  0  0  0  0  0  0  0  0  0
   -1.6471   -7.4126   24.0038 H   0  0  0  0  0  0  0  0  0  0  0  0
   -1.5988   -6.8393   22.3254 H   0  0  0  0  0  0  0  0  0  0  0  0
   -0.5470   -6.1079   23.5290 H   0  0  0  0  0  0  0  0  0  0  0  0
    0.8085   -8.0071   23.7325 H   0  0  0  0  0  0  0  0  0  0  0  0
    0.6333   -7.7265   21.9831 H   0  0  0  0  0  0  0  0  0  0  0  0
   -2.2064   -8.8289   21.5635 H   0  0  0  0  0  0  0  0  0  0  0  0
    0.9883   -9.7710   20.9603 H   0  0  0  0  0  0  0  0  0  0  0  0
    2.6038  -11.8778   23.7963 H   0  0  0  0  0  0  0  0  0  0  0  0
    1.8853  -13.0173   24.0211 H   0  0  0  0  0  0  0  0  0  0  0  0
   -0.1268  -11.4339   27.2828 H   0  0  0  0  0  0  0  0  0  0  0  0
    1.0222  -12.4189   28.1308 H   0  0  0  0  0  0  0  0  0  0  0  0
    1.5944  -10.9991   27.4005 H   0  0  0  0  0  0  0  0  0  0  0  0
   -1.8676  -12.9245   25.7130 H   0  0  0  0  0  0  0  0  0  0  0  0
   -3.3449  -14.7871   25.9039 H   0  0  0  0  0  0  0  0  0  0  0  0
    1.1192  -16.5076   30.1125 H   0  0  0  0  0  0  0  0  0  0  0  0
    1.9717  -14.5489   28.3736 H   0  0  0  0  0  0  0  0  0  0  0  0
  1  2  1  0
  2  3  1  0
  3  4  1  0
  4  5  2  0
  5  6  1  0
  6  7  2  0
  7  8  1  0
  8  9  1  0
  9 10  1  0
  9 11  1  0
 11 12  2  0
 12 13  1  0
 13 14  2  0
 14 15  1  0
 15 16  2  0
 16 17  1  0
 17 18  2  0
 18 19  1  0
  7  3  1  0
 19 11  1  0
 19 15  1  0
  1 20  1  0
  1 21  1  0
  1 22  1  0
  2 23  1  0
  2 24  1  0
  4 25  1  0
  6 26  1  0
  8 27  1  0
  8 28  1  0
 10 29  1  0
 10 30  1  0
 10 31  1  0
 12 32  1  0
 13 33  1  0
 17 34  1  0
 18 35  1  0
M  END
>  <Energy>  (1031) 
506.6647194382993

>  <compound_id>  (1031) 
8664

>  <target_id>  (1031) 
1

>  <reference_id>  (1031) 
107

>  <inspiration_ids>  (1031) 
[80, 107]

>  <energy_score>  (1031) 
430.19146297909913

>  <distance_score>  (1031) 
15.1675478061531

>  <path>  (1031) 
/opt/xchem-fragalysis-2/maxwin/BulkDock/SCRATCH/511020/C8664-P107/C8664-P107.minimised.mol

>  <scratch_subdir>  (1031) 
/opt/xchem-fragalysis-2/maxwin/BulkDock/SCRATCH/511020/C8664-P107

>  <fragmenstein_runtime>  (1031) 
20.25709891319275

>  <fragmenstein_outcome>  (1031) 
too moved

>  <fragmenstein_mode>  (1031) 
expansion

>  <fragmenstein_error>  (1031) 


$$$$
C8674-P80
     RDKit          3D

 39 42  0  0  0  0  0  0  0  0999 V2000
   -4.9075  -12.3206   25.1973 C   0  0  0  0  0  0  0  0  0  0  0  0
   -5.6189  -12.8917   24.0467 N   0  0  0  0  0  0  0  0  0  0  0  0
   -5.7617  -11.7865   22.9150 C   0  0  0  0  0  0  0  0  0  0  0  0
   -4.5611  -10.8769   22.2779 C   0  0  0  0  0  0  0  0  0  0  0  0
   -3.8747   -9.8513   22.7965 N   0  0  0  0  0  0  0  0  0  0  0  0
   -3.0729   -9.2989   21.7761 C   0  0  0  0  0  0  0  0  0  0  0  0
   -2.2083   -8.1339   21.9479 C   0  0  0  0  0  0  0  0  0  0  0  0
   -1.2080   -7.7991   21.0284 C   0  0  0  0  0  0  0  0  0  0  0  0
   -0.4119   -6.6677   21.2265 C   0  0  0  0  0  0  0  0  0  0  0  0
   -0.6013   -5.8644   22.3486 C   0  0  0  0  0  0  0  0  0  0  0  0
   -1.5922   -6.1856   23.2719 C   0  0  0  0  0  0  0  0  0  0  0  0
   -2.3947   -7.3107   23.0691 C   0  0  0  0  0  0  0  0  0  0  0  0
   -3.2084  -10.0621   20.6432 C   0  0  0  0  0  0  0  0  0  0  0  0
   -4.1541  -11.0145   20.9495 N   0  0  0  0  0  0  0  0  0  0  0  0
   -6.5781  -14.0135   24.2211 C   0  0  0  0  0  0  0  0  0  0  0  0
   -7.2156  -14.5398   23.1495 C   0  0  0  0  0  0  0  0  0  0  0  0
   -8.1834  -15.6526   23.3433 C   0  0  0  0  0  0  0  0  0  0  0  0
   -8.5097  -16.2131   24.4571 N   0  0  0  0  0  0  0  0  0  0  0  0
   -7.8653  -15.7393   25.5579 C   0  0  0  0  0  0  0  0  0  0  0  0
   -8.0196  -16.1804   26.7915 N   0  0  0  0  0  0  0  0  0  0  0  0
   -7.1671  -15.4512   27.5556 C   0  0  0  0  0  0  0  0  0  0  0  0
   -6.4865  -14.5327   26.7890 C   0  0  0  0  0  0  0  0  0  0  0  0
   -6.9124  -14.6842   25.4821 N   0  0  0  0  0  0  0  0  0  0  0  0
   -4.2900  -13.0839   25.6789 H   0  0  0  0  0  0  0  0  0  0  0  0
   -5.6164  -11.8893   25.9108 H   0  0  0  0  0  0  0  0  0  0  0  0
   -4.2259  -11.5187   24.9050 H   0  0  0  0  0  0  0  0  0  0  0  0
   -6.2227  -12.2663   22.0459 H   0  0  0  0  0  0  0  0  0  0  0  0
   -6.4913  -11.0609   23.2988 H   0  0  0  0  0  0  0  0  0  0  0  0
   -1.0200   -8.4144   20.1530 H   0  0  0  0  0  0  0  0  0  0  0  0
    0.3673   -6.4235   20.5090 H   0  0  0  0  0  0  0  0  0  0  0  0
    0.0325   -4.9959   22.5081 H   0  0  0  0  0  0  0  0  0  0  0  0
   -1.7368   -5.5645   24.1514 H   0  0  0  0  0  0  0  0  0  0  0  0
   -3.1695   -7.5452   23.7957 H   0  0  0  0  0  0  0  0  0  0  0  0
   -2.7570  -10.0089   19.6617 H   0  0  0  0  0  0  0  0  0  0  0  0
   -4.5060  -11.7110   20.3081 H   0  0  0  0  0  0  0  0  0  0  0  0
   -7.0706  -14.2119   22.1321 H   0  0  0  0  0  0  0  0  0  0  0  0
   -8.6656  -16.0063   22.4162 H   0  0  0  0  0  0  0  0  0  0  0  0
   -7.0798  -15.6176   28.6223 H   0  0  0  0  0  0  0  0  0  0  0  0
   -5.7490  -13.8104   27.0867 H   0  0  0  0  0  0  0  0  0  0  0  0
  1  2  1  0
  2  3  1  0
  3  4  1  0
  4  5  2  0
  5  6  1  0
  6  7  1  0
  7  8  2  0
  8  9  1  0
  9 10  2  0
 10 11  1  0
 11 12  2  0
  6 13  2  0
 13 14  1  0
  2 15  1  0
 15 16  2  0
 16 17  1  0
 17 18  2  0
 18 19  1  0
 19 20  2  0
 20 21  1  0
 21 22  2  0
 22 23  1  0
 14  4  1  0
 23 15  1  0
 12  7  1  0
 23 19  1  0
  1 24  1  0
  1 25  1  0
  1 26  1  0
  3 27  1  0
  3 28  1  0
  8 29  1  0
  9 30  1  0
 10 31  1  0
 11 32  1  0
 12 33  1  0
 13 34  1  0
 14 35  1  0
 16 36  1  0
 17 37  1  0
 21 38  1  0
 22 39  1  0
M  END
>  <Energy>  (1032) 
107.09054774308855

>  <compound_id>  (1032) 
8674

>  <target_id>  (1032) 
1

>  <reference_id>  (1032) 
80

>  <inspiration_ids>  (1032) 
[80, 107]

>  <energy_score>  (1032) 
-15.654435848831838

>  <distance_score>  (1032) 
14.399166203859078

>  <path>  (1032) 
/opt/xchem-fragalysis-2/maxwin/BulkDock/SCRATCH/511020/C8674-P80/C8674-P80.minimised.mol

>  <scratch_subdir>  (1032) 
/opt/xchem-fragalysis-2/maxwin/BulkDock/SCRATCH/511020/C8674-P80

>  <fragmenstein_runtime>  (1032) 
23.744157075881958

>  <fragmenstein_outcome>  (1032) 
too moved

>  <fragmenstein_mode>  (1032) 
expansion

>  <fragmenstein_error>  (1032) 


$$$$
C8674-P107
     RDKit          3D

 39 42  0  0  0  0  0  0  0  0999 V2000
   -0.6925  -15.3382   17.2202 C   0  0  0  0  0  0  0  0  0  0  0  0
    0.2234  -15.9431   18.2285 N   0  0  0  0  0  0  0  0  0  0  0  0
    1.8720  -15.4154   17.7618 C   0  0  0  0  0  0  0  0  0  0  0  0
    3.1842  -14.3615   18.5885 C   0  0  0  0  0  0  0  0  0  0  0  0
    3.6683  -12.8748   18.4040 N   0  0  0  0  0  0  0  0  0  0  0  0
    5.0746  -12.3138   19.1840 C   0  0  0  0  0  0  0  0  0  0  0  0
    6.0218  -10.7008   18.9996 C   0  0  0  0  0  0  0  0  0  0  0  0
    7.6561  -10.5174   18.1841 C   0  0  0  0  0  0  0  0  0  0  0  0
    7.8667   -9.7525   16.6701 C   0  0  0  0  0  0  0  0  0  0  0  0
    6.7708   -8.5916   16.0045 C   0  0  0  0  0  0  0  0  0  0  0  0
    5.3395   -8.3050   16.7492 C   0  0  0  0  0  0  0  0  0  0  0  0
    4.9427   -9.3681   18.0700 C   0  0  0  0  0  0  0  0  0  0  0  0
    5.3665  -13.5816   19.3458 C   0  0  0  0  0  0  0  0  0  0  0  0
    4.5384  -14.6539   18.4479 N   0  0  0  0  0  0  0  0  0  0  0  0
   -0.3549  -17.1584   18.9043 C   0  0  0  0  0  0  0  0  0  0  0  0
    0.0099  -18.4193   18.5854 C   0  0  0  0  0  0  0  0  0  0  0  0
   -0.6277  -19.5665   19.3111 C   0  0  0  0  0  0  0  0  0  0  0  0
   -1.5497  -19.5202   20.2155 N   0  0  0  0  0  0  0  0  0  0  0  0
   -2.0185  -18.2789   20.5025 C   0  0  0  0  0  0  0  0  0  0  0  0
   -2.9812  -17.9807   21.3585 N   0  0  0  0  0  0  0  0  0  0  0  0
   -3.1981  -16.6478   21.2179 C   0  0  0  0  0  0  0  0  0  0  0  0
   -2.3559  -16.1156   20.2680 C   0  0  0  0  0  0  0  0  0  0  0  0
   -1.5022  -17.1235   19.8499 N   0  0  0  0  0  0  0  0  0  0  0  0
   -0.5361  -15.8178   16.2485 H   0  0  0  0  0  0  0  0  0  0  0  0
   -1.7433  -15.4615   17.4979 H   0  0  0  0  0  0  0  0  0  0  0  0
   -0.5020  -14.2654   17.1225 H   0  0  0  0  0  0  0  0  0  0  0  0
    2.3909  -16.3175   17.4077 H   0  0  0  0  0  0  0  0  0  0  0  0
    1.6291  -14.8494   16.8643 H   0  0  0  0  0  0  0  0  0  0  0  0
    8.5751  -10.8434   18.6903 H   0  0  0  0  0  0  0  0  0  0  0  0
    8.8186   -9.9000   16.1552 H   0  0  0  0  0  0  0  0  0  0  0  0
    7.0113   -8.1361   15.0495 H   0  0  0  0  0  0  0  0  0  0  0  0
    4.5628   -7.6979   16.2949 H   0  0  0  0  0  0  0  0  0  0  0  0
    3.8370   -9.2912   18.0129 H   0  0  0  0  0  0  0  0  0  0  0  0
    6.1613  -14.1265   19.5688 H   0  0  0  0  0  0  0  0  0  0  0  0
    4.7745  -15.6000   18.6554 H   0  0  0  0  0  0  0  0  0  0  0  0
    0.7718  -18.6445   17.8526 H   0  0  0  0  0  0  0  0  0  0  0  0
   -0.2267  -20.5551   19.0291 H   0  0  0  0  0  0  0  0  0  0  0  0
   -3.9696  -16.1386   21.7801 H   0  0  0  0  0  0  0  0  0  0  0  0
   -2.2926  -15.1227   19.8565 H   0  0  0  0  0  0  0  0  0  0  0  0
  1  2  1  0
  2  3  1  0
  3  4  1  0
  4  5  2  0
  5  6  1  0
  6  7  1  0
  7  8  2  0
  8  9  1  0
  9 10  2  0
 10 11  1  0
 11 12  2  0
  6 13  2  0
 13 14  1  0
  2 15  1  0
 15 16  2  0
 16 17  1  0
 17 18  2  0
 18 19  1  0
 19 20  2  0
 20 21  1  0
 21 22  2  0
 22 23  1  0
 14  4  1  0
 23 15  1  0
 12  7  1  0
 23 19  1  0
  1 24  1  0
  1 25  1  0
  1 26  1  0
  3 27  1  0
  3 28  1  0
  8 29  1  0
  9 30  1  0
 10 31  1  0
 11 32  1  0
 12 33  1  0
 13 34  1  0
 14 35  1  0
 16 36  1  0
 17 37  1  0
 21 38  1  0
 22 39  1  0
M  END
>  <Energy>  (1033) 
634.36671588731178

>  <compound_id>  (1033) 
8674

>  <target_id>  (1033) 
1

>  <reference_id>  (1033) 
107

>  <inspiration_ids>  (1033) 
[80, 107]

>  <energy_score>  (1033) 
511.6217322953802

>  <distance_score>  (1033) 
15.441965768461248

>  <path>  (1033) 
/opt/xchem-fragalysis-2/maxwin/BulkDock/SCRATCH/511020/C8674-P107/C8674-P107.minimised.mol

>  <scratch_subdir>  (1033) 
/opt/xchem-fragalysis-2/maxwin/BulkDock/SCRATCH/511020/C8674-P107

>  <fragmenstein_runtime>  (1033) 
14.608672380447388

>  <fragmenstein_outcome>  (1033) 
too moved

>  <fragmenstein_mode>  (1033) 
expansion

>  <fragmenstein_error>  (1033) 


$$$$
C8673-P80
     RDKit          3D

 44 46  0  0  0  0  0  0  0  0999 V2000
   -3.8636  -17.0387   16.5485 C   0  0  0  0  0  0  0  0  0  0  0  0
   -3.1424  -18.0442   15.6634 C   0  0  0  0  0  0  0  0  0  0  0  0
   -2.6308  -19.2659   16.4269 C   0  0  0  0  0  0  0  0  0  0  0  0
   -1.3903  -19.0444   17.1488 N   0  0  0  0  0  0  0  0  0  0  0  0
   -0.1445  -19.1344   16.5715 C   0  0  0  0  0  0  0  0  0  0  0  0
    0.7330  -19.0772   17.6205 C   0  0  0  0  0  0  0  0  0  0  0  0
    0.0598  -18.8541   18.7949 N   0  0  0  0  0  0  0  0  0  0  0  0
   -1.2299  -18.9054   18.5166 C   0  0  0  0  0  0  0  0  0  0  0  0
   -2.3636  -18.7816   19.5214 C   0  0  0  0  0  0  0  0  0  0  0  0
   -2.7693  -20.0827   20.2654 C   0  0  0  0  0  0  0  0  0  0  0  0
   -4.0563  -19.8721   21.1247 C   0  0  0  0  0  0  0  0  0  0  0  0
   -4.3891  -20.9704   22.0934 N   0  0  0  0  0  0  0  0  0  0  0  0
   -3.2770  -21.3236   22.9902 C   0  0  0  0  0  0  0  0  0  0  0  0
   -5.6192  -21.6817   22.1382 C   0  0  0  0  0  0  0  0  0  0  0  0
   -5.6671  -23.0045   22.4043 C   0  0  0  0  0  0  0  0  0  0  0  0
   -7.0025  -23.6479   22.4403 C   0  0  0  0  0  0  0  0  0  0  0  0
   -8.1429  -23.0741   22.2393 N   0  0  0  0  0  0  0  0  0  0  0  0
   -8.0964  -21.7431   21.9762 C   0  0  0  0  0  0  0  0  0  0  0  0
   -9.1135  -20.9273   21.7655 N   0  0  0  0  0  0  0  0  0  0  0  0
   -8.5781  -19.6739   21.6880 C   0  0  0  0  0  0  0  0  0  0  0  0
   -7.2158  -19.7118   21.8541 C   0  0  0  0  0  0  0  0  0  0  0  0
   -6.8781  -21.0435   21.9636 N   0  0  0  0  0  0  0  0  0  0  0  0
   -4.7175  -17.5035   17.0518 H   0  0  0  0  0  0  0  0  0  0  0  0
   -3.2018  -16.6209   17.3110 H   0  0  0  0  0  0  0  0  0  0  0  0
   -4.2415  -16.2087   15.9430 H   0  0  0  0  0  0  0  0  0  0  0  0
   -3.8511  -18.3867   14.8997 H   0  0  0  0  0  0  0  0  0  0  0  0
   -2.3219  -17.5449   15.1352 H   0  0  0  0  0  0  0  0  0  0  0  0
   -2.4256  -20.0735   15.7125 H   0  0  0  0  0  0  0  0  0  0  0  0
   -3.3835  -19.6519   17.1216 H   0  0  0  0  0  0  0  0  0  0  0  0
   -0.0029  -19.2891   15.5122 H   0  0  0  0  0  0  0  0  0  0  0  0
    1.8047  -19.1890   17.5902 H   0  0  0  0  0  0  0  0  0  0  0  0
   -2.0520  -18.0421   20.2669 H   0  0  0  0  0  0  0  0  0  0  0  0
   -3.2460  -18.3591   19.0309 H   0  0  0  0  0  0  0  0  0  0  0  0
   -2.9494  -20.8907   19.5462 H   0  0  0  0  0  0  0  0  0  0  0  0
   -1.9278  -20.4016   20.8899 H   0  0  0  0  0  0  0  0  0  0  0  0
   -4.8850  -19.7345   20.4215 H   0  0  0  0  0  0  0  0  0  0  0  0
   -3.9595  -18.9431   21.6996 H   0  0  0  0  0  0  0  0  0  0  0  0
   -2.6607  -22.1083   22.5401 H   0  0  0  0  0  0  0  0  0  0  0  0
   -2.6456  -20.4528   23.1981 H   0  0  0  0  0  0  0  0  0  0  0  0
   -3.6512  -21.6809   23.9561 H   0  0  0  0  0  0  0  0  0  0  0  0
   -4.7993  -23.6254   22.5712 H   0  0  0  0  0  0  0  0  0  0  0  0
   -6.9796  -24.7267   22.6411 H   0  0  0  0  0  0  0  0  0  0  0  0
   -9.2042  -18.8047   21.5363 H   0  0  0  0  0  0  0  0  0  0  0  0
   -6.4769  -18.9286   21.8990 H   0  0  0  0  0  0  0  0  0  0  0  0
  1  2  1  0
  2  3  1  0
  3  4  1  0
  4  5  1  0
  5  6  2  0
  6  7  1  0
  7  8  2  0
  8  9  1  0
  9 10  1  0
 10 11  1  0
 11 12  1  0
 12 13  1  0
 12 14  1  0
 14 15  2  0
 15 16  1  0
 16 17  2  0
 17 18  1  0
 18 19  2  0
 19 20  1  0
 20 21  2  0
 21 22  1  0
  8  4  1  0
 22 14  1  0
 22 18  1  0
  1 23  1  0
  1 24  1  0
  1 25  1  0
  2 26  1  0
  2 27  1  0
  3 28  1  0
  3 29  1  0
  5 30  1  0
  6 31  1  0
  9 32  1  0
  9 33  1  0
 10 34  1  0
 10 35  1  0
 11 36  1  0
 11 37  1  0
 13 38  1  0
 13 39  1  0
 13 40  1  0
 15 41  1  0
 16 42  1  0
 20 43  1  0
 21 44  1  0
M  END
>  <Energy>  (1034) 
55.583436181245794

>  <compound_id>  (1034) 
8673

>  <target_id>  (1034) 
1

>  <reference_id>  (1034) 
80

>  <inspiration_ids>  (1034) 
[80, 107]

>  <energy_score>  (1034) 
-31.973486748186815

>  <distance_score>  (1034) 
14.980946045790938

>  <path>  (1034) 
/opt/xchem-fragalysis-2/maxwin/BulkDock/SCRATCH/511020/C8673-P80/C8673-P80.minimised.mol

>  <scratch_subdir>  (1034) 
/opt/xchem-fragalysis-2/maxwin/BulkDock/SCRATCH/511020/C8673-P80

>  <fragmenstein_runtime>  (1034) 
34.09921097755432

>  <fragmenstein_outcome>  (1034) 
too moved

>  <fragmenstein_mode>  (1034) 
expansion

>  <fragmenstein_error>  (1034) 


$$$$
C8673-P107
     RDKit          3D

 44 46  0  0  0  0  0  0  0  0999 V2000
    4.8433  -12.9550   19.3362 C   0  0  0  0  0  0  0  0  0  0  0  0
    4.6454  -12.8757   20.7597 C   0  0  0  0  0  0  0  0  0  0  0  0
    3.3017  -13.6446   21.4694 C   0  0  0  0  0  0  0  0  0  0  0  0
    2.7333  -14.1451   23.2070 N   0  0  0  0  0  0  0  0  0  0  0  0
    3.2380  -13.0196   23.7979 C   0  0  0  0  0  0  0  0  0  0  0  0
    2.1508  -12.4021   24.1788 C   0  0  0  0  0  0  0  0  0  0  0  0
    1.6376  -13.2110   25.0399 N   0  0  0  0  0  0  0  0  0  0  0  0
    1.0457  -13.9864   24.0190 C   0  0  0  0  0  0  0  0  0  0  0  0
   -0.7656  -14.4013   24.3136 C   0  0  0  0  0  0  0  0  0  0  0  0
   -1.8284  -13.7571   25.7329 C   0  0  0  0  0  0  0  0  0  0  0  0
   -2.8403  -14.7101   26.5994 C   0  0  0  0  0  0  0  0  0  0  0  0
   -3.8974  -15.5749   25.9291 N   0  0  0  0  0  0  0  0  0  0  0  0
   -4.7913  -14.8145   25.0405 C   0  0  0  0  0  0  0  0  0  0  0  0
   -4.4515  -16.7324   26.6001 C   0  0  0  0  0  0  0  0  0  0  0  0
   -3.8398  -17.9317   26.5264 C   0  0  0  0  0  0  0  0  0  0  0  0
   -4.5738  -19.1125   27.0536 C   0  0  0  0  0  0  0  0  0  0  0  0
   -5.7657  -19.1212   27.5555 N   0  0  0  0  0  0  0  0  0  0  0  0
   -6.3636  -17.9058   27.6799 C   0  0  0  0  0  0  0  0  0  0  0  0
   -7.5732  -17.6450   28.1368 N   0  0  0  0  0  0  0  0  0  0  0  0
   -7.7041  -16.2906   28.1056 C   0  0  0  0  0  0  0  0  0  0  0  0
   -6.5833  -15.7045   27.5713 C   0  0  0  0  0  0  0  0  0  0  0  0
   -5.7283  -16.7327   27.2438 N   0  0  0  0  0  0  0  0  0  0  0  0
    3.9586  -12.9284   18.7196 H   0  0  0  0  0  0  0  0  0  0  0  0
    5.5443  -12.1494   19.0977 H   0  0  0  0  0  0  0  0  0  0  0  0
    5.3573  -13.8884   19.1107 H   0  0  0  0  0  0  0  0  0  0  0  0
    4.7551  -11.8545   21.0980 H   0  0  0  0  0  0  0  0  0  0  0  0
    5.6159  -13.2956   20.9324 H   0  0  0  0  0  0  0  0  0  0  0  0
    2.6481  -14.2362   20.7978 H   0  0  0  0  0  0  0  0  0  0  0  0
    3.0486  -12.6452   21.7125 H   0  0  0  0  0  0  0  0  0  0  0  0
    3.8197  -12.4346   23.1553 H   0  0  0  0  0  0  0  0  0  0  0  0
    1.6513  -11.7610   23.5074 H   0  0  0  0  0  0  0  0  0  0  0  0
   -1.0983  -14.6312   23.3379 H   0  0  0  0  0  0  0  0  0  0  0  0
   -1.1502  -15.3849   24.4757 H   0  0  0  0  0  0  0  0  0  0  0  0
   -1.1447  -13.3009   26.4695 H   0  0  0  0  0  0  0  0  0  0  0  0
   -2.4473  -12.8917   25.4704 H   0  0  0  0  0  0  0  0  0  0  0  0
   -2.2716  -15.3218   27.3061 H   0  0  0  0  0  0  0  0  0  0  0  0
   -3.3896  -14.0178   27.2542 H   0  0  0  0  0  0  0  0  0  0  0  0
   -5.0646  -13.8484   25.4763 H   0  0  0  0  0  0  0  0  0  0  0  0
   -5.7097  -15.3670   24.8125 H   0  0  0  0  0  0  0  0  0  0  0  0
   -4.3013  -14.6479   24.0805 H   0  0  0  0  0  0  0  0  0  0  0  0
   -2.8955  -18.0983   26.0327 H   0  0  0  0  0  0  0  0  0  0  0  0
   -4.0336  -20.0698   26.9605 H   0  0  0  0  0  0  0  0  0  0  0  0
   -8.5977  -15.8009   28.4690 H   0  0  0  0  0  0  0  0  0  0  0  0
   -6.3214  -14.6717   27.4067 H   0  0  0  0  0  0  0  0  0  0  0  0
  1  2  1  0
  2  3  1  0
  3  4  1  0
  4  5  1  0
  5  6  2  0
  6  7  1  0
  7  8  2  0
  8  9  1  0
  9 10  1  0
 10 11  1  0
 11 12  1  0
 12 13  1  0
 12 14  1  0
 14 15  2  0
 15 16  1  0
 16 17  2  0
 17 18  1  0
 18 19  2  0
 19 20  1  0
 20 21  2  0
 21 22  1  0
  8  4  1  0
 22 14  1  0
 22 18  1  0
  1 23  1  0
  1 24  1  0
  1 25  1  0
  2 26  1  0
  2 27  1  0
  3 28  1  0
  3 29  1  0
  5 30  1  0
  6 31  1  0
  9 32  1  0
  9 33  1  0
 10 34  1  0
 10 35  1  0
 11 36  1  0
 11 37  1  0
 13 38  1  0
 13 39  1  0
 13 40  1  0
 15 41  1  0
 16 42  1  0
 20 43  1  0
 21 44  1  0
M  END
>  <Energy>  (1035) 
511.2541334761213

>  <compound_id>  (1035) 
8673

>  <target_id>  (1035) 
1

>  <reference_id>  (1035) 
107

>  <inspiration_ids>  (1035) 
[80, 107]

>  <energy_score>  (1035) 
423.69721054669117

>  <distance_score>  (1035) 
12.907647052422607

>  <path>  (1035) 
/opt/xchem-fragalysis-2/maxwin/BulkDock/SCRATCH/511020/C8673-P107/C8673-P107.minimised.mol

>  <scratch_subdir>  (1035) 
/opt/xchem-fragalysis-2/maxwin/BulkDock/SCRATCH/511020/C8673-P107

>  <fragmenstein_runtime>  (1035) 
42.949036836624146

>  <fragmenstein_outcome>  (1035) 
too moved

>  <fragmenstein_mode>  (1035) 
expansion

>  <fragmenstein_error>  (1035) 


$$$$
C77319-P52
     RDKit          3D

 25 27  0  0  0  0  0  0  0  0999 V2000
   -1.7659  -16.1159   20.0783 C   0  0  0  0  0  0  0  0  0  0  0  0
   -1.4566  -17.3247   20.6793 C   0  0  0  0  0  0  0  0  0  0  0  0
   -2.1541  -17.7449   21.8293 C   0  0  0  0  0  0  0  0  0  0  0  0
   -3.1891  -16.9844   22.4099 C   0  0  0  0  0  0  0  0  0  0  0  0
   -3.9926  -17.5480   23.5536 C   0  0  0  0  0  0  0  0  0  0  0  0
   -3.7705  -18.6919   24.1947 N   0  0  0  0  0  0  0  0  0  0  0  0
   -4.7947  -18.8635   25.1048 C   0  0  0  0  0  0  0  0  0  0  0  0
   -5.0564  -19.9183   25.9967 C   0  0  0  0  0  0  0  0  0  0  0  0
   -6.2109  -19.8587   26.7806 C   0  0  0  0  0  0  0  0  0  0  0  0
   -7.0667  -18.7575   26.6943 C   0  0  0  0  0  0  0  0  0  0  0  0
   -6.8134  -17.6900   25.8338 C   0  0  0  0  0  0  0  0  0  0  0  0
   -5.6692  -17.7904   25.0462 C   0  0  0  0  0  0  0  0  0  0  0  0
   -5.1368  -16.9716   24.0780 N   0  0  0  0  0  0  0  0  0  0  0  0
   -3.4290  -15.7266   21.8162 C   0  0  0  0  0  0  0  0  0  0  0  0
   -2.7407  -15.3068   20.6570 C   0  0  0  0  0  0  0  0  0  0  0  0
   -1.2733  -15.8374   19.1524 H   0  0  0  0  0  0  0  0  0  0  0  0
   -0.7017  -17.9761   20.2453 H   0  0  0  0  0  0  0  0  0  0  0  0
   -1.9142  -18.7190   22.2576 H   0  0  0  0  0  0  0  0  0  0  0  0
   -4.3890  -20.7718   26.0396 H   0  0  0  0  0  0  0  0  0  0  0  0
   -6.4523  -20.6915   27.4344 H   0  0  0  0  0  0  0  0  0  0  0  0
   -7.9819  -18.7269   27.2720 H   0  0  0  0  0  0  0  0  0  0  0  0
   -7.4883  -16.8449   25.7662 H   0  0  0  0  0  0  0  0  0  0  0  0
   -5.5418  -16.1050   23.7642 H   0  0  0  0  0  0  0  0  0  0  0  0
   -4.1999  -15.0719   22.2120 H   0  0  0  0  0  0  0  0  0  0  0  0
   -3.0136  -14.3688   20.1818 H   0  0  0  0  0  0  0  0  0  0  0  0
  1  2  2  0
  2  3  1  0
  3  4  2  0
  4  5  1  0
  5  6  2  0
  6  7  1  0
  7  8  2  0
  8  9  1  0
  9 10  2  0
 10 11  1  0
 11 12  2  0
 12 13  1  0
  4 14  1  0
 14 15  2  0
 15  1  1  0
 13  5  1  0
 12  7  1  0
  1 16  1  0
  2 17  1  0
  3 18  1  0
  8 19  1  0
  9 20  1  0
 10 21  1  0
 11 22  1  0
 13 23  1  0
 14 24  1  0
 15 25  1  0
M  END
>  <Energy>  (1036) 
31.444482162156387

>  <compound_id>  (1036) 
77319

>  <target_id>  (1036) 
1

>  <reference_id>  (1036) 
52

>  <inspiration_ids>  (1036) 
[52, 20]

>  <energy_score>  (1036) 
-4.114712799064591

>  <distance_score>  (1036) 
15.471698095458747

>  <path>  (1036) 
/opt/xchem-fragalysis-2/maxwin/BulkDock/SCRATCH/511020/C77319-P52/C77319-P52.minimised.mol

>  <scratch_subdir>  (1036) 
/opt/xchem-fragalysis-2/maxwin/BulkDock/SCRATCH/511020/C77319-P52

>  <fragmenstein_runtime>  (1036) 
10.383079528808594

>  <fragmenstein_outcome>  (1036) 
too moved

>  <fragmenstein_mode>  (1036) 
expansion

>  <fragmenstein_error>  (1036) 


$$$$
C77319-P20
     RDKit          3D

 25 27  0  0  0  0  0  0  0  0999 V2000
   -0.6870  -15.9457   22.2808 C   0  0  0  0  0  0  0  0  0  0  0  0
   -0.4265  -16.1988   23.5903 C   0  0  0  0  0  0  0  0  0  0  0  0
   -1.4323  -16.3468   24.6109 C   0  0  0  0  0  0  0  0  0  0  0  0
   -2.8257  -16.4755   24.3227 C   0  0  0  0  0  0  0  0  0  0  0  0
   -3.9990  -17.2629   25.3424 C   0  0  0  0  0  0  0  0  0  0  0  0
   -4.8664  -16.8053   26.2804 N   0  0  0  0  0  0  0  0  0  0  0  0
   -5.6632  -17.8812   26.7506 C   0  0  0  0  0  0  0  0  0  0  0  0
   -6.7905  -17.8985   27.5853 C   0  0  0  0  0  0  0  0  0  0  0  0
   -7.5546  -19.0555   27.5405 C   0  0  0  0  0  0  0  0  0  0  0  0
   -7.1164  -20.2317   26.9239 C   0  0  0  0  0  0  0  0  0  0  0  0
   -5.8971  -20.2918   26.2877 C   0  0  0  0  0  0  0  0  0  0  0  0
   -5.2606  -19.0574   26.1401 C   0  0  0  0  0  0  0  0  0  0  0  0
   -4.1960  -18.6650   25.3389 N   0  0  0  0  0  0  0  0  0  0  0  0
   -3.0240  -16.0665   22.9460 C   0  0  0  0  0  0  0  0  0  0  0  0
   -2.0031  -15.7691   21.9520 C   0  0  0  0  0  0  0  0  0  0  0  0
    0.0200  -16.2472   21.5178 H   0  0  0  0  0  0  0  0  0  0  0  0
    0.4139  -16.8637   23.7292 H   0  0  0  0  0  0  0  0  0  0  0  0
   -1.1039  -16.6882   25.5950 H   0  0  0  0  0  0  0  0  0  0  0  0
   -7.1447  -16.9880   28.0529 H   0  0  0  0  0  0  0  0  0  0  0  0
   -8.5442  -18.9892   27.9343 H   0  0  0  0  0  0  0  0  0  0  0  0
   -7.6862  -21.1424   26.9799 H   0  0  0  0  0  0  0  0  0  0  0  0
   -5.5414  -21.1917   25.7989 H   0  0  0  0  0  0  0  0  0  0  0  0
   -3.6745  -19.2787   24.7340 H   0  0  0  0  0  0  0  0  0  0  0  0
   -4.0565  -16.1055   22.5863 H   0  0  0  0  0  0  0  0  0  0  0  0
   -2.3225  -15.6498   20.9186 H   0  0  0  0  0  0  0  0  0  0  0  0
  1  2  2  0
  2  3  1  0
  3  4  2  0
  4  5  1  0
  5  6  2  0
  6  7  1  0
  7  8  2  0
  8  9  1  0
  9 10  2  0
 10 11  1  0
 11 12  2  0
 12 13  1  0
  4 14  1  0
 14 15  2  0
 15  1  1  0
 13  5  1  0
 12  7  1  0
  1 16  1  0
  2 17  1  0
  3 18  1  0
  8 19  1  0
  9 20  1  0
 10 21  1  0
 11 22  1  0
 13 23  1  0
 14 24  1  0
 15 25  1  0
M  END
>  <Energy>  (1037) 
96.479117601395657

>  <compound_id>  (1037) 
77319

>  <target_id>  (1037) 
1

>  <reference_id>  (1037) 
20

>  <inspiration_ids>  (1037) 
[52, 20]

>  <energy_score>  (1037) 
60.522775265482636

>  <distance_score>  (1037) 
14.8849258707055

>  <path>  (1037) 
/opt/xchem-fragalysis-2/maxwin/BulkDock/SCRATCH/511020/C77319-P20/C77319-P20.minimised.mol

>  <scratch_subdir>  (1037) 
/opt/xchem-fragalysis-2/maxwin/BulkDock/SCRATCH/511020/C77319-P20

>  <fragmenstein_runtime>  (1037) 
7.655927419662476

>  <fragmenstein_outcome>  (1037) 
too moved

>  <fragmenstein_mode>  (1037) 
expansion

>  <fragmenstein_error>  (1037) 


$$$$
C77321-P52
     RDKit          3D

 32 35  0  0  0  0  0  0  0  0999 V2000
    3.2987  -11.0997   22.7463 C   0  0  0  0  0  0  0  0  0  0  0  0
    4.9850  -10.1445   22.9526 C   0  0  0  0  0  0  0  0  0  0  0  0
    5.8931  -10.1597   23.9303 C   0  0  0  0  0  0  0  0  0  0  0  0
    5.5292  -11.2137   24.7886 C   0  0  0  0  0  0  0  0  0  0  0  0
    4.1970  -12.4888   24.7262 C   0  0  0  0  0  0  0  0  0  0  0  0
    3.6952  -13.6989   26.1283 C   0  0  0  0  0  0  0  0  0  0  0  0
    2.6447  -13.2987   26.8500 C   0  0  0  0  0  0  0  0  0  0  0  0
    1.3845  -14.3410   27.5697 C   0  0  0  0  0  0  0  0  0  0  0  0
    1.3789  -15.7146   27.7827 C   0  0  0  0  0  0  0  0  0  0  0  0
    0.5230  -16.6139   28.3559 N   0  0  0  0  0  0  0  0  0  0  0  0
    0.9467  -17.7691   27.8908 C   0  0  0  0  0  0  0  0  0  0  0  0
    2.0245  -17.6057   27.0455 N   0  0  0  0  0  0  0  0  0  0  0  0
    2.3742  -16.2726   27.0501 C   0  0  0  0  0  0  0  0  0  0  0  0
    3.1925  -15.3518   26.2174 C   0  0  0  0  0  0  0  0  0  0  0  0
    3.2790  -12.3372   23.5391 C   0  0  0  0  0  0  0  0  0  0  0  0
    7.2062  -11.3311   25.2671 C   0  0  0  0  0  0  0  0  0  0  0  0
    8.0697  -10.5327   24.2642 C   0  0  0  0  0  0  0  0  0  0  0  0
    7.1609   -9.3972   23.9402 C   0  0  0  0  0  0  0  0  0  0  0  0
    2.7543  -10.9796   21.8041 H   0  0  0  0  0  0  0  0  0  0  0  0
    5.2251   -9.4120   22.1387 H   0  0  0  0  0  0  0  0  0  0  0  0
    2.4505  -12.2731   26.4716 H   0  0  0  0  0  0  0  0  0  0  0  0
    0.5730  -13.9169   28.1545 H   0  0  0  0  0  0  0  0  0  0  0  0
    0.5151  -18.7404   28.0927 H   0  0  0  0  0  0  0  0  0  0  0  0
    2.4578  -18.3334   26.4946 H   0  0  0  0  0  0  0  0  0  0  0  0
    3.2695  -15.9054   25.2553 H   0  0  0  0  0  0  0  0  0  0  0  0
    3.0397  -13.1715   22.8725 H   0  0  0  0  0  0  0  0  0  0  0  0
    7.3690  -10.7556   26.1754 H   0  0  0  0  0  0  0  0  0  0  0  0
    7.6051  -12.3480   25.2817 H   0  0  0  0  0  0  0  0  0  0  0  0
    9.0203  -10.2096   24.7004 H   0  0  0  0  0  0  0  0  0  0  0  0
    8.3041  -11.1290   23.3762 H   0  0  0  0  0  0  0  0  0  0  0  0
    7.1419   -8.6316   24.7224 H   0  0  0  0  0  0  0  0  0  0  0  0
    7.4092   -8.9339   22.9813 H   0  0  0  0  0  0  0  0  0  0  0  0
  1  2  2  0
  2  3  1  0
  3  4  2  0
  4  5  1  0
  5  6  1  0
  6  7  2  0
  7  8  1  0
  8  9  2  0
  9 10  1  0
 10 11  2  0
 11 12  1  0
 12 13  1  0
 13 14  2  0
  5 15  2  0
  4 16  1  0
 16 17  1  0
 17 18  1  0
 15  1  1  0
 18  3  1  0
 14  6  1  0
 13  9  1  0
  1 19  1  0
  2 20  1  0
  7 21  1  0
  8 22  1  0
 11 23  1  0
 12 24  1  0
 14 25  1  0
 15 26  1  0
 16 27  1  0
 16 28  1  0
 17 29  1  0
 17 30  1  0
 18 31  1  0
 18 32  1  0
M  END
>  <Energy>  (1038) 
447.06483372136216

>  <compound_id>  (1038) 
77321

>  <target_id>  (1038) 
1

>  <reference_id>  (1038) 
52

>  <inspiration_ids>  (1038) 
[52, 20]

>  <energy_score>  (1038) 
388.74955491414835

>  <distance_score>  (1038) 
14.92047514249869

>  <path>  (1038) 
/opt/xchem-fragalysis-2/maxwin/BulkDock/SCRATCH/511020/C77321-P52/C77321-P52.minimised.mol

>  <scratch_subdir>  (1038) 
/opt/xchem-fragalysis-2/maxwin/BulkDock/SCRATCH/511020/C77321-P52

>  <fragmenstein_runtime>  (1038) 
11.855473041534424

>  <fragmenstein_outcome>  (1038) 
too moved

>  <fragmenstein_mode>  (1038) 
expansion

>  <fragmenstein_error>  (1038) 


$$$$
C77321-P20
     RDKit          3D

 32 35  0  0  0  0  0  0  0  0999 V2000
    5.4315  -11.7570   24.2110 C   0  0  0  0  0  0  0  0  0  0  0  0
    6.2621  -10.8371   23.8486 C   0  0  0  0  0  0  0  0  0  0  0  0
    5.1099  -10.1442   23.4743 C   0  0  0  0  0  0  0  0  0  0  0  0
    3.3756  -10.3991   22.9702 C   0  0  0  0  0  0  0  0  0  0  0  0
    2.3326  -11.7583   23.2097 C   0  0  0  0  0  0  0  0  0  0  0  0
    0.4111  -11.9733   22.7344 C   0  0  0  0  0  0  0  0  0  0  0  0
   -0.8292  -11.1379   21.7627 C   0  0  0  0  0  0  0  0  0  0  0  0
   -1.8975  -12.2829   20.8826 C   0  0  0  0  0  0  0  0  0  0  0  0
   -2.2413  -14.0601   20.9490 C   0  0  0  0  0  0  0  0  0  0  0  0
   -3.2896  -14.8504   20.5551 N   0  0  0  0  0  0  0  0  0  0  0  0
   -3.1973  -15.9830   21.2456 C   0  0  0  0  0  0  0  0  0  0  0  0
   -2.1478  -16.1210   22.1554 N   0  0  0  0  0  0  0  0  0  0  0  0
   -1.3688  -15.0069   22.1110 C   0  0  0  0  0  0  0  0  0  0  0  0
   -0.1461  -13.8604   22.9118 C   0  0  0  0  0  0  0  0  0  0  0  0
    3.6161  -12.4759   23.6174 C   0  0  0  0  0  0  0  0  0  0  0  0
    2.9574   -8.4989   22.9606 C   0  0  0  0  0  0  0  0  0  0  0  0
    4.5163   -7.5524   23.7264 C   0  0  0  0  0  0  0  0  0  0  0  0
    5.3576   -8.5533   24.6361 C   0  0  0  0  0  0  0  0  0  0  0  0
    5.7958  -12.2228   25.1983 H   0  0  0  0  0  0  0  0  0  0  0  0
    7.1276  -10.4980   24.3861 H   0  0  0  0  0  0  0  0  0  0  0  0
   -0.7012  -10.1129   21.4273 H   0  0  0  0  0  0  0  0  0  0  0  0
   -2.5774  -11.8034   20.1669 H   0  0  0  0  0  0  0  0  0  0  0  0
   -3.9101  -16.7927   21.1503 H   0  0  0  0  0  0  0  0  0  0  0  0
   -2.0828  -16.8844   22.8083 H   0  0  0  0  0  0  0  0  0  0  0  0
    0.3249  -14.2534   23.8301 H   0  0  0  0  0  0  0  0  0  0  0  0
    3.6905  -12.5121   22.4463 H   0  0  0  0  0  0  0  0  0  0  0  0
    2.3130   -8.4520   22.0861 H   0  0  0  0  0  0  0  0  0  0  0  0
    2.1597   -8.1154   23.6408 H   0  0  0  0  0  0  0  0  0  0  0  0
    5.2233   -7.0986   23.0488 H   0  0  0  0  0  0  0  0  0  0  0  0
    4.1677   -6.8224   24.4682 H   0  0  0  0  0  0  0  0  0  0  0  0
    5.1271   -8.6297   25.6982 H   0  0  0  0  0  0  0  0  0  0  0  0
    6.4306   -8.2600   24.7380 H   0  0  0  0  0  0  0  0  0  0  0  0
  1  2  2  0
  2  3  1  0
  3  4  2  0
  4  5  1  0
  5  6  1  0
  6  7  2  0
  7  8  1  0
  8  9  2  0
  9 10  1  0
 10 11  2  0
 11 12  1  0
 12 13  1  0
 13 14  2  0
  5 15  2  0
  4 16  1  0
 16 17  1  0
 17 18  1  0
 15  1  1  0
 18  3  1  0
 14  6  1  0
 13  9  1  0
  1 19  1  0
  2 20  1  0
  7 21  1  0
  8 22  1  0
 11 23  1  0
 12 24  1  0
 14 25  1  0
 15 26  1  0
 16 27  1  0
 16 28  1  0
 17 29  1  0
 17 30  1  0
 18 31  1  0
 18 32  1  0
M  END
>  <Energy>  (1039) 
948.74678889174049

>  <compound_id>  (1039) 
77321

>  <target_id>  (1039) 
1

>  <reference_id>  (1039) 
20

>  <inspiration_ids>  (1039) 
[52, 20]

>  <energy_score>  (1039) 
890.4315100845187

>  <distance_score>  (1039) 
15.595959304419567

>  <path>  (1039) 
/opt/xchem-fragalysis-2/maxwin/BulkDock/SCRATCH/511020/C77321-P20/C77321-P20.minimised.mol

>  <scratch_subdir>  (1039) 
/opt/xchem-fragalysis-2/maxwin/BulkDock/SCRATCH/511020/C77321-P20

>  <fragmenstein_runtime>  (1039) 
14.053087949752808

>  <fragmenstein_outcome>  (1039) 
too moved

>  <fragmenstein_mode>  (1039) 
expansion

>  <fragmenstein_error>  (1039) 


$$$$
C77323-P52
     RDKit          3D

 41 43  0  0  0  0  0  0  0  0999 V2000
    2.7237  -15.8449   26.0979 C   0  0  0  0  0  0  0  0  0  0  0  0
    2.6598  -14.6678   26.9809 C   0  0  0  0  0  0  0  0  0  0  0  0
    1.5555  -13.6805   26.9297 C   0  0  0  0  0  0  0  0  0  0  0  0
    3.7453  -13.4410   26.0070 O   0  0  0  0  0  0  0  0  0  0  0  0
    4.2369  -13.0125   24.3652 C   0  0  0  0  0  0  0  0  0  0  0  0
    4.9747  -11.7664   24.1476 C   0  0  0  0  0  0  0  0  0  0  0  0
    5.5792  -11.3184   22.9451 C   0  0  0  0  0  0  0  0  0  0  0  0
    5.5848  -12.1242   21.8345 C   0  0  0  0  0  0  0  0  0  0  0  0
    5.0729  -13.3996   21.9890 C   0  0  0  0  0  0  0  0  0  0  0  0
    4.4850  -13.8484   23.2196 C   0  0  0  0  0  0  0  0  0  0  0  0
    1.5337  -15.0168   28.6959 C   0  0  0  0  0  0  0  0  0  0  0  0
    1.5574  -14.2575   29.6515 O   0  0  0  0  0  0  0  0  0  0  0  0
    0.5729  -16.2217   28.9923 O   0  0  0  0  0  0  0  0  0  0  0  0
   -0.1489  -16.4386   30.4771 C   0  0  0  0  0  0  0  0  0  0  0  0
   -1.8550  -16.4796   31.4737 C   0  0  0  0  0  0  0  0  0  0  0  0
   -2.1892  -17.3949   32.4607 N   0  0  0  0  0  0  0  0  0  0  0  0
   -3.1268  -16.9636   33.4239 C   0  0  0  0  0  0  0  0  0  0  0  0
   -3.7181  -17.6540   34.4960 C   0  0  0  0  0  0  0  0  0  0  0  0
   -4.8207  -17.0839   35.1340 C   0  0  0  0  0  0  0  0  0  0  0  0
   -5.2654  -15.8212   34.7487 C   0  0  0  0  0  0  0  0  0  0  0  0
   -4.6180  -15.0898   33.7362 C   0  0  0  0  0  0  0  0  0  0  0  0
   -3.5517  -15.7099   33.0788 C   0  0  0  0  0  0  0  0  0  0  0  0
   -2.7591  -15.3802   31.9417 N   0  0  0  0  0  0  0  0  0  0  0  0
    3.4038  -16.6151   26.3872 H   0  0  0  0  0  0  0  0  0  0  0  0
    2.9459  -15.8905   25.0433 H   0  0  0  0  0  0  0  0  0  0  0  0
    1.7456  -16.1999   26.3448 H   0  0  0  0  0  0  0  0  0  0  0  0
    2.0903  -12.8095   27.0963 H   0  0  0  0  0  0  0  0  0  0  0  0
    1.0642  -13.0878   26.1517 H   0  0  0  0  0  0  0  0  0  0  0  0
    0.7993  -14.0821   27.4969 H   0  0  0  0  0  0  0  0  0  0  0  0
    5.1785  -11.0938   24.9891 H   0  0  0  0  0  0  0  0  0  0  0  0
    6.0603  -10.3446   22.9211 H   0  0  0  0  0  0  0  0  0  0  0  0
    6.0380  -11.8080   20.9018 H   0  0  0  0  0  0  0  0  0  0  0  0
    5.1541  -14.1078   21.1654 H   0  0  0  0  0  0  0  0  0  0  0  0
    4.2872  -14.9218   23.1843 H   0  0  0  0  0  0  0  0  0  0  0  0
    0.4536  -17.2712   30.7046 H   0  0  0  0  0  0  0  0  0  0  0  0
    0.1316  -15.4217   30.6605 H   0  0  0  0  0  0  0  0  0  0  0  0
   -3.3524  -18.6294   34.7897 H   0  0  0  0  0  0  0  0  0  0  0  0
   -5.3240  -17.6202   35.9350 H   0  0  0  0  0  0  0  0  0  0  0  0
   -6.1183  -15.3777   35.2600 H   0  0  0  0  0  0  0  0  0  0  0  0
   -4.9639  -14.1014   33.4688 H   0  0  0  0  0  0  0  0  0  0  0  0
   -2.7803  -14.4742   31.4892 H   0  0  0  0  0  0  0  0  0  0  0  0
  1  2  1  0
  2  3  1  0
  2  4  1  0
  4  5  1  0
  5  6  2  0
  6  7  1  0
  7  8  2  0
  8  9  1  0
  9 10  2  0
  2 11  1  0
 11 12  2  0
 11 13  1  0
 13 14  1  0
 14 15  1  0
 15 16  2  0
 16 17  1  0
 17 18  2  0
 18 19  1  0
 19 20  2  0
 20 21  1  0
 21 22  2  0
 22 23  1  0
 10  5  1  0
 23 15  1  0
 22 17  1  0
  1 24  1  0
  1 25  1  0
  1 26  1  0
  3 27  1  0
  3 28  1  0
  3 29  1  0
  6 30  1  0
  7 31  1  0
  8 32  1  0
  9 33  1  0
 10 34  1  0
 14 35  1  0
 14 36  1  0
 18 37  1  0
 19 38  1  0
 20 39  1  0
 21 40  1  0
 23 41  1  0
M  END
>  <Energy>  (1040) 
582.10788397371948

>  <compound_id>  (1040) 
77323

>  <target_id>  (1040) 
1

>  <reference_id>  (1040) 
52

>  <inspiration_ids>  (1040) 
[52, 20]

>  <energy_score>  (1040) 
491.1857923394032

>  <distance_score>  (1040) 
13.01015243018223

>  <path>  (1040) 
/opt/xchem-fragalysis-2/maxwin/BulkDock/SCRATCH/511020/C77323-P52/C77323-P52.minimised.mol

>  <scratch_subdir>  (1040) 
/opt/xchem-fragalysis-2/maxwin/BulkDock/SCRATCH/511020/C77323-P52

>  <fragmenstein_runtime>  (1040) 
22.89308738708496

>  <fragmenstein_outcome>  (1040) 
too moved

>  <fragmenstein_mode>  (1040) 
expansion

>  <fragmenstein_error>  (1040) 


$$$$
C77323-P20
     RDKit          3D

 41 43  0  0  0  0  0  0  0  0999 V2000
    2.3879  -13.0921   35.1536 C   0  0  0  0  0  0  0  0  0  0  0  0
    1.7059  -11.7849   34.6935 C   0  0  0  0  0  0  0  0  0  0  0  0
    2.0093  -10.7566   35.8138 C   0  0  0  0  0  0  0  0  0  0  0  0
    2.5376  -11.4283   33.4877 O   0  0  0  0  0  0  0  0  0  0  0  0
    3.1632  -10.2342   33.1196 C   0  0  0  0  0  0  0  0  0  0  0  0
    2.5537   -8.9834   33.0870 C   0  0  0  0  0  0  0  0  0  0  0  0
    3.1439   -7.8883   32.4192 C   0  0  0  0  0  0  0  0  0  0  0  0
    4.3687   -8.0129   31.7575 C   0  0  0  0  0  0  0  0  0  0  0  0
    5.0352   -9.2257   31.8326 C   0  0  0  0  0  0  0  0  0  0  0  0
    4.4441  -10.3055   32.5307 C   0  0  0  0  0  0  0  0  0  0  0  0
   -0.0187  -12.1450   34.9286 C   0  0  0  0  0  0  0  0  0  0  0  0
   -0.7728  -11.2894   35.4006 O   0  0  0  0  0  0  0  0  0  0  0  0
   -0.5014  -13.4283   34.6726 O   0  0  0  0  0  0  0  0  0  0  0  0
   -1.9592  -13.8942   35.0794 C   0  0  0  0  0  0  0  0  0  0  0  0
   -2.6718  -14.9517   34.0988 C   0  0  0  0  0  0  0  0  0  0  0  0
   -2.3096  -15.1155   32.8233 N   0  0  0  0  0  0  0  0  0  0  0  0
   -3.1886  -16.0802   32.0314 C   0  0  0  0  0  0  0  0  0  0  0  0
   -3.6765  -15.8064   30.3121 C   0  0  0  0  0  0  0  0  0  0  0  0
   -5.4480  -16.1880   30.1138 C   0  0  0  0  0  0  0  0  0  0  0  0
   -6.2803  -16.6400   31.3289 C   0  0  0  0  0  0  0  0  0  0  0  0
   -5.6655  -16.8733   32.7251 C   0  0  0  0  0  0  0  0  0  0  0  0
   -4.2120  -16.5194   33.0858 C   0  0  0  0  0  0  0  0  0  0  0  0
   -3.7352  -15.8886   34.3316 N   0  0  0  0  0  0  0  0  0  0  0  0
    3.4640  -12.9499   35.3087 H   0  0  0  0  0  0  0  0  0  0  0  0
    2.2865  -13.8528   34.3810 H   0  0  0  0  0  0  0  0  0  0  0  0
    1.9526  -13.4862   36.0780 H   0  0  0  0  0  0  0  0  0  0  0  0
    3.0824  -10.5562   35.9066 H   0  0  0  0  0  0  0  0  0  0  0  0
    1.5107   -9.8039   35.6122 H   0  0  0  0  0  0  0  0  0  0  0  0
    1.6428  -11.1042   36.7868 H   0  0  0  0  0  0  0  0  0  0  0  0
    1.5786   -8.8327   33.5382 H   0  0  0  0  0  0  0  0  0  0  0  0
    2.6171   -6.9368   32.3944 H   0  0  0  0  0  0  0  0  0  0  0  0
    4.8000   -7.1717   31.2251 H   0  0  0  0  0  0  0  0  0  0  0  0
    5.9991   -9.3615   31.3518 H   0  0  0  0  0  0  0  0  0  0  0  0
    4.9812  -11.2499   32.5610 H   0  0  0  0  0  0  0  0  0  0  0  0
   -1.8303  -14.3724   36.0547 H   0  0  0  0  0  0  0  0  0  0  0  0
   -2.5783  -12.9997   35.1666 H   0  0  0  0  0  0  0  0  0  0  0  0
   -3.0429  -15.2065   29.6756 H   0  0  0  0  0  0  0  0  0  0  0  0
   -6.0572  -15.9516   29.2558 H   0  0  0  0  0  0  0  0  0  0  0  0
   -7.3391  -16.7832   31.1900 H   0  0  0  0  0  0  0  0  0  0  0  0
   -6.3507  -17.0983   33.5431 H   0  0  0  0  0  0  0  0  0  0  0  0
   -4.2960  -15.8785   35.1666 H   0  0  0  0  0  0  0  0  0  0  0  0
  1  2  1  0
  2  3  1  0
  2  4  1  0
  4  5  1  0
  5  6  2  0
  6  7  1  0
  7  8  2  0
  8  9  1  0
  9 10  2  0
  2 11  1  0
 11 12  2  0
 11 13  1  0
 13 14  1  0
 14 15  1  0
 15 16  2  0
 16 17  1  0
 17 18  2  0
 18 19  1  0
 19 20  2  0
 20 21  1  0
 21 22  2  0
 22 23  1  0
 10  5  1  0
 23 15  1  0
 22 17  1  0
  1 24  1  0
  1 25  1  0
  1 26  1  0
  3 27  1  0
  3 28  1  0
  3 29  1  0
  6 30  1  0
  7 31  1  0
  8 32  1  0
  9 33  1  0
 10 34  1  0
 14 35  1  0
 14 36  1  0
 18 37  1  0
 19 38  1  0
 20 39  1  0
 21 40  1  0
 23 41  1  0
M  END
>  <Energy>  (1041) 
283.00529303741473

>  <compound_id>  (1041) 
77323

>  <target_id>  (1041) 
1

>  <reference_id>  (1041) 
20

>  <inspiration_ids>  (1041) 
[52, 20]

>  <energy_score>  (1041) 
192.08320140309513

>  <distance_score>  (1041) 
15.615597363581747

>  <path>  (1041) 
/opt/xchem-fragalysis-2/maxwin/BulkDock/SCRATCH/511020/C77323-P20/C77323-P20.minimised.mol

>  <scratch_subdir>  (1041) 
/opt/xchem-fragalysis-2/maxwin/BulkDock/SCRATCH/511020/C77323-P20

>  <fragmenstein_runtime>  (1041) 
41.39292025566101

>  <fragmenstein_outcome>  (1041) 
too moved

>  <fragmenstein_mode>  (1041) 
expansion

>  <fragmenstein_error>  (1041) 


$$$$
C77328-P52
     RDKit          3D

 46 48  0  0  0  0  0  0  0  0999 V2000
    4.8334   -5.5666   13.7991 C   0  0  0  0  0  0  0  0  0  0  0  0
    5.7469   -6.4027   13.0137 N   0  0  0  0  0  0  0  0  0  0  0  0
    4.8443   -7.3535   12.1362 C   0  0  0  0  0  0  0  0  0  0  0  0
    4.3831   -8.9424   12.6484 C   0  0  0  0  0  0  0  0  0  0  0  0
    3.2236   -9.5030   13.5853 N   0  0  0  0  0  0  0  0  0  0  0  0
    2.4479  -10.8132   13.5301 C   0  0  0  0  0  0  0  0  0  0  0  0
    2.4729  -11.7038   12.7130 O   0  0  0  0  0  0  0  0  0  0  0  0
    1.4239  -11.1989   14.8477 C   0  0  0  0  0  0  0  0  0  0  0  0
    0.5573  -12.6154   14.6725 C   0  0  0  0  0  0  0  0  0  0  0  0
   -0.3649  -13.4423   15.7960 C   0  0  0  0  0  0  0  0  0  0  0  0
   -1.6536  -13.2859   16.1482 N   0  0  0  0  0  0  0  0  0  0  0  0
   -2.0585  -14.4216   16.9032 C   0  0  0  0  0  0  0  0  0  0  0  0
   -3.2642  -14.7353   17.5868 C   0  0  0  0  0  0  0  0  0  0  0  0
   -3.3663  -15.9193   18.3526 C   0  0  0  0  0  0  0  0  0  0  0  0
   -2.2858  -16.7911   18.4435 C   0  0  0  0  0  0  0  0  0  0  0  0
   -1.0877  -16.5093   17.7671 C   0  0  0  0  0  0  0  0  0  0  0  0
   -1.0073  -15.3188   17.0063 C   0  0  0  0  0  0  0  0  0  0  0  0
    0.0164  -14.7148   16.2749 N   0  0  0  0  0  0  0  0  0  0  0  0
    6.9962   -5.6544   12.7050 C   0  0  0  0  0  0  0  0  0  0  0  0
    8.6650   -6.2595   13.3781 C   0  0  0  0  0  0  0  0  0  0  0  0
   10.0030   -5.0411   13.7838 C   0  0  0  0  0  0  0  0  0  0  0  0
    9.7531   -3.5090   13.1774 C   0  0  0  0  0  0  0  0  0  0  0  0
    8.4021   -3.2205   12.3493 C   0  0  0  0  0  0  0  0  0  0  0  0
    7.0393   -4.1734   12.1430 C   0  0  0  0  0  0  0  0  0  0  0  0
    4.4448   -4.7394   13.1982 H   0  0  0  0  0  0  0  0  0  0  0  0
    3.9559   -6.1530   14.1046 H   0  0  0  0  0  0  0  0  0  0  0  0
    5.2717   -5.2515   14.7428 H   0  0  0  0  0  0  0  0  0  0  0  0
    5.3473   -7.4800   11.1701 H   0  0  0  0  0  0  0  0  0  0  0  0
    3.9049   -6.8331   11.9072 H   0  0  0  0  0  0  0  0  0  0  0  0
    4.1397   -9.4365   11.6978 H   0  0  0  0  0  0  0  0  0  0  0  0
    5.2837   -9.4510   13.0053 H   0  0  0  0  0  0  0  0  0  0  0  0
    2.8946   -8.9530   14.3708 H   0  0  0  0  0  0  0  0  0  0  0  0
    2.0639  -11.2906   15.7307 H   0  0  0  0  0  0  0  0  0  0  0  0
    0.7248  -10.3679   14.9795 H   0  0  0  0  0  0  0  0  0  0  0  0
   -0.1360  -12.4435   13.8376 H   0  0  0  0  0  0  0  0  0  0  0  0
    1.2778  -13.3666   14.3205 H   0  0  0  0  0  0  0  0  0  0  0  0
   -4.0945  -14.0432   17.5111 H   0  0  0  0  0  0  0  0  0  0  0  0
   -4.2944  -16.1627   18.8599 H   0  0  0  0  0  0  0  0  0  0  0  0
   -2.3669  -17.7053   19.0242 H   0  0  0  0  0  0  0  0  0  0  0  0
   -0.2403  -17.1838   17.8400 H   0  0  0  0  0  0  0  0  0  0  0  0
    0.9290  -15.1178   16.1269 H   0  0  0  0  0  0  0  0  0  0  0  0
    9.5832   -5.7223   12.7300 H   0  0  0  0  0  0  0  0  0  0  0  0
   10.9925   -5.3455   14.1372 H   0  0  0  0  0  0  0  0  0  0  0  0
   10.4946   -2.7324   13.3389 H   0  0  0  0  0  0  0  0  0  0  0  0
    8.2661   -2.1683   12.2519 H   0  0  0  0  0  0  0  0  0  0  0  0
    6.1439   -3.7065   11.7476 H   0  0  0  0  0  0  0  0  0  0  0  0
  1  2  1  0
  2  3  1  0
  3  4  1  0
  4  5  1  0
  5  6  1  0
  6  7  2  0
  6  8  1  0
  8  9  1  0
  9 10  1  0
 10 11  2  0
 11 12  1  0
 12 13  2  0
 13 14  1  0
 14 15  2  0
 15 16  1  0
 16 17  2  0
 17 18  1  0
  2 19  1  0
 19 20  2  0
 20 21  1  0
 21 22  2  0
 22 23  1  0
 23 24  2  0
 18 10  1  0
 24 19  1  0
 17 12  1  0
  1 25  1  0
  1 26  1  0
  1 27  1  0
  3 28  1  0
  3 29  1  0
  4 30  1  0
  4 31  1  0
  5 32  1  0
  8 33  1  0
  8 34  1  0
  9 35  1  0
  9 36  1  0
 13 37  1  0
 14 38  1  0
 15 39  1  0
 16 40  1  0
 18 41  1  0
 20 42  1  0
 21 43  1  0
 22 44  1  0
 23 45  1  0
 24 46  1  0
M  END
>  <Energy>  (1042) 
432.16136250574675

>  <compound_id>  (1042) 
77328

>  <target_id>  (1042) 
1

>  <reference_id>  (1042) 
52

>  <inspiration_ids>  (1042) 
[52, 20]

>  <energy_score>  (1042) 
381.51485974784396

>  <distance_score>  (1042) 
15.851838749236821

>  <path>  (1042) 
/opt/xchem-fragalysis-2/maxwin/BulkDock/SCRATCH/511020/C77328-P52/C77328-P52.minimised.mol

>  <scratch_subdir>  (1042) 
/opt/xchem-fragalysis-2/maxwin/BulkDock/SCRATCH/511020/C77328-P52

>  <fragmenstein_runtime>  (1042) 
36.26323342323303

>  <fragmenstein_outcome>  (1042) 
too moved

>  <fragmenstein_mode>  (1042) 
expansion

>  <fragmenstein_error>  (1042) 


$$$$
C77328-P20
     RDKit          3D

 46 48  0  0  0  0  0  0  0  0999 V2000
    4.8053   -7.5721   28.7817 C   0  0  0  0  0  0  0  0  0  0  0  0
    4.7769   -8.7720   27.9200 N   0  0  0  0  0  0  0  0  0  0  0  0
    4.0215  -10.0293   28.5911 C   0  0  0  0  0  0  0  0  0  0  0  0
    2.1804  -10.5667   28.3921 C   0  0  0  0  0  0  0  0  0  0  0  0
    0.7735  -11.0757   27.4047 N   0  0  0  0  0  0  0  0  0  0  0  0
    0.4995  -12.5293   26.4167 C   0  0  0  0  0  0  0  0  0  0  0  0
    1.3198  -13.3920   26.1951 O   0  0  0  0  0  0  0  0  0  0  0  0
   -1.4199  -13.0678   25.6084 C   0  0  0  0  0  0  0  0  0  0  0  0
   -3.1144  -12.2573   26.0137 C   0  0  0  0  0  0  0  0  0  0  0  0
   -4.4070  -12.1868   27.4817 C   0  0  0  0  0  0  0  0  0  0  0  0
   -4.4381  -12.2280   28.9244 N   0  0  0  0  0  0  0  0  0  0  0  0
   -5.9696  -12.2461   29.4034 C   0  0  0  0  0  0  0  0  0  0  0  0
   -6.6159  -12.1161   30.6354 C   0  0  0  0  0  0  0  0  0  0  0  0
   -7.9491  -12.5275   30.8348 C   0  0  0  0  0  0  0  0  0  0  0  0
   -8.7127  -12.9462   29.7608 C   0  0  0  0  0  0  0  0  0  0  0  0
   -8.1969  -12.8098   28.4747 C   0  0  0  0  0  0  0  0  0  0  0  0
   -6.8542  -12.4035   28.3469 C   0  0  0  0  0  0  0  0  0  0  0  0
   -6.0815  -12.0947   27.2436 N   0  0  0  0  0  0  0  0  0  0  0  0
    5.9574   -8.7604   27.1051 C   0  0  0  0  0  0  0  0  0  0  0  0
    6.2429   -7.6255   26.2845 C   0  0  0  0  0  0  0  0  0  0  0  0
    7.3145   -7.5671   25.3816 C   0  0  0  0  0  0  0  0  0  0  0  0
    8.1650   -8.6492   25.2552 C   0  0  0  0  0  0  0  0  0  0  0  0
    7.9375   -9.7665   26.0552 C   0  0  0  0  0  0  0  0  0  0  0  0
    6.8549   -9.8186   26.9694 C   0  0  0  0  0  0  0  0  0  0  0  0
    5.6852   -7.5779   29.4355 H   0  0  0  0  0  0  0  0  0  0  0  0
    3.9175   -7.5554   29.4248 H   0  0  0  0  0  0  0  0  0  0  0  0
    4.7688   -6.6332   28.2218 H   0  0  0  0  0  0  0  0  0  0  0  0
    4.7144  -10.8756   28.5492 H   0  0  0  0  0  0  0  0  0  0  0  0
    3.9978   -9.7494   29.6533 H   0  0  0  0  0  0  0  0  0  0  0  0
    2.0965  -11.3112   29.1726 H   0  0  0  0  0  0  0  0  0  0  0  0
    1.7157   -9.6560   28.7999 H   0  0  0  0  0  0  0  0  0  0  0  0
   -0.0954  -10.5654   27.4990 H   0  0  0  0  0  0  0  0  0  0  0  0
   -1.1852  -13.7993   24.8198 H   0  0  0  0  0  0  0  0  0  0  0  0
   -1.9048  -14.0426   25.9931 H   0  0  0  0  0  0  0  0  0  0  0  0
   -2.6328  -11.3523   26.3588 H   0  0  0  0  0  0  0  0  0  0  0  0
   -3.6232  -12.2044   25.0507 H   0  0  0  0  0  0  0  0  0  0  0  0
   -6.0725  -11.6417   31.4233 H   0  0  0  0  0  0  0  0  0  0  0  0
   -8.3827  -12.4747   31.8294 H   0  0  0  0  0  0  0  0  0  0  0  0
   -9.7428  -13.2568   29.9090 H   0  0  0  0  0  0  0  0  0  0  0  0
   -8.8234  -12.9928   27.6119 H   0  0  0  0  0  0  0  0  0  0  0  0
   -6.4731  -12.0907   26.3186 H   0  0  0  0  0  0  0  0  0  0  0  0
    5.5853   -6.7590   26.3003 H   0  0  0  0  0  0  0  0  0  0  0  0
    7.4603   -6.6785   24.7743 H   0  0  0  0  0  0  0  0  0  0  0  0
    8.9958   -8.6311   24.5573 H   0  0  0  0  0  0  0  0  0  0  0  0
    8.6011  -10.6258   25.9787 H   0  0  0  0  0  0  0  0  0  0  0  0
    6.7239  -10.7221   27.5583 H   0  0  0  0  0  0  0  0  0  0  0  0
  1  2  1  0
  2  3  1  0
  3  4  1  0
  4  5  1  0
  5  6  1  0
  6  7  2  0
  6  8  1  0
  8  9  1  0
  9 10  1  0
 10 11  2  0
 11 12  1  0
 12 13  2  0
 13 14  1  0
 14 15  2  0
 15 16  1  0
 16 17  2  0
 17 18  1  0
  2 19  1  0
 19 20  2  0
 20 21  1  0
 21 22  2  0
 22 23  1  0
 23 24  2  0
 18 10  1  0
 24 19  1  0
 17 12  1  0
  1 25  1  0
  1 26  1  0
  1 27  1  0
  3 28  1  0
  3 29  1  0
  4 30  1  0
  4 31  1  0
  5 32  1  0
  8 33  1  0
  8 34  1  0
  9 35  1  0
  9 36  1  0
 13 37  1  0
 14 38  1  0
 15 39  1  0
 16 40  1  0
 18 41  1  0
 20 42  1  0
 21 43  1  0
 22 44  1  0
 23 45  1  0
 24 46  1  0
M  END
>  <Energy>  (1043) 
521.77085152825953

>  <compound_id>  (1043) 
77328

>  <target_id>  (1043) 
1

>  <reference_id>  (1043) 
20

>  <inspiration_ids>  (1043) 
[52, 20]

>  <energy_score>  (1043) 
471.12434877034866

>  <distance_score>  (1043) 
13.435631432187803

>  <path>  (1043) 
/opt/xchem-fragalysis-2/maxwin/BulkDock/SCRATCH/511020/C77328-P20/C77328-P20.minimised.mol

>  <scratch_subdir>  (1043) 
/opt/xchem-fragalysis-2/maxwin/BulkDock/SCRATCH/511020/C77328-P20

>  <fragmenstein_runtime>  (1043) 
33.40302658081055

>  <fragmenstein_outcome>  (1043) 
too moved

>  <fragmenstein_mode>  (1043) 
expansion

>  <fragmenstein_error>  (1043) 


$$$$
C77329-P52
     RDKit          3D

 43 45  0  0  0  0  0  0  0  0999 V2000
   -5.9663  -17.1802   34.4393 C   0  0  0  0  0  0  0  0  0  0  0  0
   -5.0905  -16.0969   34.0486 N   0  0  0  0  0  0  0  0  0  0  0  0
   -5.4282  -14.7857   33.9713 C   0  0  0  0  0  0  0  0  0  0  0  0
   -4.5563  -14.1334   33.2293 N   0  0  0  0  0  0  0  0  0  0  0  0
   -3.6511  -15.0495   32.7635 C   0  0  0  0  0  0  0  0  0  0  0  0
   -2.5975  -15.0967   31.6282 C   0  0  0  0  0  0  0  0  0  0  0  0
   -1.4790  -16.2387   31.1758 C   0  0  0  0  0  0  0  0  0  0  0  0
    0.2102  -15.9722   29.9991 C   0  0  0  0  0  0  0  0  0  0  0  0
    0.6178  -14.6043   30.1987 N   0  0  0  0  0  0  0  0  0  0  0  0
    0.9879  -15.2392   28.2126 C   0  0  0  0  0  0  0  0  0  0  0  0
    2.5449  -14.8891   27.0100 C   0  0  0  0  0  0  0  0  0  0  0  0
    3.5018  -13.5873   26.5812 O   0  0  0  0  0  0  0  0  0  0  0  0
    3.7431  -12.6731   25.3055 C   0  0  0  0  0  0  0  0  0  0  0  0
    4.7246  -12.4727   23.8740 C   0  0  0  0  0  0  0  0  0  0  0  0
    4.6790  -13.2736   22.7350 C   0  0  0  0  0  0  0  0  0  0  0  0
    5.4235  -12.9553   21.5783 C   0  0  0  0  0  0  0  0  0  0  0  0
    6.2366  -11.8204   21.5097 C   0  0  0  0  0  0  0  0  0  0  0  0
    6.3438  -11.0083   22.6243 C   0  0  0  0  0  0  0  0  0  0  0  0
    5.6150  -11.3365   23.7811 C   0  0  0  0  0  0  0  0  0  0  0  0
   -1.9852  -17.2692   31.9199 C   0  0  0  0  0  0  0  0  0  0  0  0
   -3.0703  -17.2505   33.0921 C   0  0  0  0  0  0  0  0  0  0  0  0
   -3.8523  -16.1953   33.4717 C   0  0  0  0  0  0  0  0  0  0  0  0
   -6.8316  -16.7611   34.9553 H   0  0  0  0  0  0  0  0  0  0  0  0
   -5.4184  -17.8426   35.1136 H   0  0  0  0  0  0  0  0  0  0  0  0
   -6.2812  -17.7124   33.5383 H   0  0  0  0  0  0  0  0  0  0  0  0
   -6.3162  -14.3612   34.4208 H   0  0  0  0  0  0  0  0  0  0  0  0
   -2.5198  -14.1044   31.1630 H   0  0  0  0  0  0  0  0  0  0  0  0
    0.8170  -16.8467   30.2348 H   0  0  0  0  0  0  0  0  0  0  0  0
   -0.0540  -13.8845   29.9791 H   0  0  0  0  0  0  0  0  0  0  0  0
    1.5764  -14.3978   29.9645 H   0  0  0  0  0  0  0  0  0  0  0  0
    0.4400  -15.8230   27.4578 H   0  0  0  0  0  0  0  0  0  0  0  0
    0.6655  -14.2496   28.1737 H   0  0  0  0  0  0  0  0  0  0  0  0
    3.4187  -15.1735   27.5936 H   0  0  0  0  0  0  0  0  0  0  0  0
    2.5573  -15.5967   26.1772 H   0  0  0  0  0  0  0  0  0  0  0  0
    4.1465  -11.8534   25.9079 H   0  0  0  0  0  0  0  0  0  0  0  0
    2.7751  -12.2961   25.0719 H   0  0  0  0  0  0  0  0  0  0  0  0
    4.1008  -14.1842   22.6985 H   0  0  0  0  0  0  0  0  0  0  0  0
    5.3648  -13.6155   20.7155 H   0  0  0  0  0  0  0  0  0  0  0  0
    6.7919  -11.5984   20.6036 H   0  0  0  0  0  0  0  0  0  0  0  0
    6.9878  -10.1350   22.6136 H   0  0  0  0  0  0  0  0  0  0  0  0
    5.7420  -10.6823   24.6435 H   0  0  0  0  0  0  0  0  0  0  0  0
   -1.3011  -18.0690   31.8498 H   0  0  0  0  0  0  0  0  0  0  0  0
   -3.7284  -18.1099   33.1043 H   0  0  0  0  0  0  0  0  0  0  0  0
  1  2  1  0
  2  3  1  0
  3  4  2  0
  4  5  1  0
  5  6  2  0
  6  7  1  0
  7  8  1  0
  8  9  1  0
  8 10  1  0
 10 11  1  0
 11 12  1  0
 12 13  1  0
 13 14  1  0
 14 15  2  0
 15 16  1  0
 16 17  2  0
 17 18  1  0
 18 19  2  0
  7 20  2  0
 20 21  1  0
 21 22  2  0
 22  2  1  0
 22  5  1  0
 19 14  1  0
  1 23  1  0
  1 24  1  0
  1 25  1  0
  3 26  1  0
  6 27  1  0
  8 28  1  0
  9 29  1  0
  9 30  1  0
 10 31  1  0
 10 32  1  0
 11 33  1  0
 11 34  1  0
 13 35  1  0
 13 36  1  0
 15 37  1  0
 16 38  1  0
 17 39  1  0
 18 40  1  0
 19 41  1  0
 20 42  1  0
 21 43  1  0
M  END
>  <Energy>  (1044) 
573.12716578636548

>  <compound_id>  (1044) 
77329

>  <target_id>  (1044) 
1

>  <reference_id>  (1044) 
52

>  <inspiration_ids>  (1044) 
[52, 20]

>  <energy_score>  (1044) 
501.89958015457546

>  <distance_score>  (1044) 
12.449343651606535

>  <path>  (1044) 
/opt/xchem-fragalysis-2/maxwin/BulkDock/SCRATCH/511020/C77329-P52/C77329-P52.minimised.mol

>  <scratch_subdir>  (1044) 
/opt/xchem-fragalysis-2/maxwin/BulkDock/SCRATCH/511020/C77329-P52

>  <fragmenstein_runtime>  (1044) 
17.39589810371399

>  <fragmenstein_outcome>  (1044) 
too moved

>  <fragmenstein_mode>  (1044) 
expansion

>  <fragmenstein_error>  (1044) 


$$$$
C77329-P20
     RDKit          3D

 43 45  0  0  0  0  0  0  0  0999 V2000
   -4.8168  -20.4459   32.4956 C   0  0  0  0  0  0  0  0  0  0  0  0
   -3.6145  -21.2481   32.1738 N   0  0  0  0  0  0  0  0  0  0  0  0
   -2.8389  -21.4428   33.2747 C   0  0  0  0  0  0  0  0  0  0  0  0
   -2.0506  -20.4059   33.3124 N   0  0  0  0  0  0  0  0  0  0  0  0
   -1.8835  -19.8798   31.9315 C   0  0  0  0  0  0  0  0  0  0  0  0
   -0.4930  -19.0751   31.1214 C   0  0  0  0  0  0  0  0  0  0  0  0
    0.0530  -19.0590   29.8341 C   0  0  0  0  0  0  0  0  0  0  0  0
    0.9544  -17.4492   29.0803 C   0  0  0  0  0  0  0  0  0  0  0  0
    1.0554  -16.5744   30.1832 N   0  0  0  0  0  0  0  0  0  0  0  0
    2.3070  -16.6839   27.8912 C   0  0  0  0  0  0  0  0  0  0  0  0
    3.6076  -15.1989   27.6435 C   0  0  0  0  0  0  0  0  0  0  0  0
    4.3354  -14.1826   26.3245 O   0  0  0  0  0  0  0  0  0  0  0  0
    5.6544  -12.9923   26.7214 C   0  0  0  0  0  0  0  0  0  0  0  0
    7.0748  -12.3424   26.2727 C   0  0  0  0  0  0  0  0  0  0  0  0
    7.1068  -10.9232   26.1534 C   0  0  0  0  0  0  0  0  0  0  0  0
    8.1688  -10.2233   25.5672 C   0  0  0  0  0  0  0  0  0  0  0  0
    9.2732  -10.9148   25.1016 C   0  0  0  0  0  0  0  0  0  0  0  0
    9.3331  -12.2883   25.3207 C   0  0  0  0  0  0  0  0  0  0  0  0
    8.2678  -12.9857   25.9415 C   0  0  0  0  0  0  0  0  0  0  0  0
   -0.6136  -20.4559   29.4397 C   0  0  0  0  0  0  0  0  0  0  0  0
   -1.8743  -21.3104   30.1260 C   0  0  0  0  0  0  0  0  0  0  0  0
   -2.6300  -20.8277   31.2497 C   0  0  0  0  0  0  0  0  0  0  0  0
   -4.5690  -19.6247   33.1765 H   0  0  0  0  0  0  0  0  0  0  0  0
   -5.5823  -21.0221   32.9653 H   0  0  0  0  0  0  0  0  0  0  0  0
   -5.2877  -20.1159   31.5968 H   0  0  0  0  0  0  0  0  0  0  0  0
   -2.9286  -22.2322   34.0057 H   0  0  0  0  0  0  0  0  0  0  0  0
    0.4260  -19.5204   31.4744 H   0  0  0  0  0  0  0  0  0  0  0  0
    0.4532  -17.5309   28.0691 H   0  0  0  0  0  0  0  0  0  0  0  0
    1.7845  -17.0076   30.7409 H   0  0  0  0  0  0  0  0  0  0  0  0
    0.2498  -16.6428   30.7939 H   0  0  0  0  0  0  0  0  0  0  0  0
    2.4268  -17.3686   27.0487 H   0  0  0  0  0  0  0  0  0  0  0  0
    1.5487  -15.9349   27.7562 H   0  0  0  0  0  0  0  0  0  0  0  0
    2.7923  -14.4913   27.4966 H   0  0  0  0  0  0  0  0  0  0  0  0
    3.9283  -15.9333   26.9501 H   0  0  0  0  0  0  0  0  0  0  0  0
    5.3108  -12.5135   27.6413 H   0  0  0  0  0  0  0  0  0  0  0  0
    5.4082  -12.5649   25.7750 H   0  0  0  0  0  0  0  0  0  0  0  0
    6.2689  -10.3415   26.5274 H   0  0  0  0  0  0  0  0  0  0  0  0
    8.1195   -9.1421   25.4718 H   0  0  0  0  0  0  0  0  0  0  0  0
   10.0999  -10.3939   24.6291 H   0  0  0  0  0  0  0  0  0  0  0  0
   10.2221  -12.8416   25.0232 H   0  0  0  0  0  0  0  0  0  0  0  0
    8.4080  -14.0469   26.1321 H   0  0  0  0  0  0  0  0  0  0  0  0
   -0.5610  -20.9107   28.4596 H   0  0  0  0  0  0  0  0  0  0  0  0
   -2.0731  -22.3317   29.7794 H   0  0  0  0  0  0  0  0  0  0  0  0
  1  2  1  0
  2  3  1  0
  3  4  2  0
  4  5  1  0
  5  6  2  0
  6  7  1  0
  7  8  1  0
  8  9  1  0
  8 10  1  0
 10 11  1  0
 11 12  1  0
 12 13  1  0
 13 14  1  0
 14 15  2  0
 15 16  1  0
 16 17  2  0
 17 18  1  0
 18 19  2  0
  7 20  2  0
 20 21  1  0
 21 22  2  0
 22  2  1  0
 22  5  1  0
 19 14  1  0
  1 23  1  0
  1 24  1  0
  1 25  1  0
  3 26  1  0
  6 27  1  0
  8 28  1  0
  9 29  1  0
  9 30  1  0
 10 31  1  0
 10 32  1  0
 11 33  1  0
 11 34  1  0
 13 35  1  0
 13 36  1  0
 15 37  1  0
 16 38  1  0
 17 39  1  0
 18 40  1  0
 19 41  1  0
 20 42  1  0
 21 43  1  0
M  END
>  <Energy>  (1045) 
697.40791444191109

>  <compound_id>  (1045) 
77329

>  <target_id>  (1045) 
1

>  <reference_id>  (1045) 
20

>  <inspiration_ids>  (1045) 
[52, 20]

>  <energy_score>  (1045) 
626.1803288100974

>  <distance_score>  (1045) 
12.342599857203046

>  <path>  (1045) 
/opt/xchem-fragalysis-2/maxwin/BulkDock/SCRATCH/511020/C77329-P20/C77329-P20.minimised.mol

>  <scratch_subdir>  (1045) 
/opt/xchem-fragalysis-2/maxwin/BulkDock/SCRATCH/511020/C77329-P20

>  <fragmenstein_runtime>  (1045) 
25.23980164527893

>  <fragmenstein_outcome>  (1045) 
too moved

>  <fragmenstein_mode>  (1045) 
expansion

>  <fragmenstein_error>  (1045) 


$$$$
C77330-P52
     RDKit          3D

 48 51  0  0  0  0  0  0  0  0999 V2000
    1.9815  -18.7756   19.9267 O   0  0  0  0  0  0  0  0  0  0  0  0
    2.5470  -18.5934   20.9146 C   0  0  0  0  0  0  0  0  0  0  0  0
    4.4361  -17.9253   20.6688 C   0  0  0  0  0  0  0  0  0  0  0  0
    5.8859  -16.9657   19.7872 C   0  0  0  0  0  0  0  0  0  0  0  0
    7.7892  -17.7640   19.2514 S   0  0  0  0  0  0  0  0  0  0  0  0
    8.8588  -17.3452   20.1480 O   0  0  0  0  0  0  0  0  0  0  0  0
    7.6356  -19.1923   19.0314 O   0  0  0  0  0  0  0  0  0  0  0  0
    8.6952  -17.4649   17.6825 C   0  0  0  0  0  0  0  0  0  0  0  0
    8.3128  -18.0738   16.4792 C   0  0  0  0  0  0  0  0  0  0  0  0
    9.0282  -17.8181   15.2943 C   0  0  0  0  0  0  0  0  0  0  0  0
   10.1604  -16.9915   15.2992 C   0  0  0  0  0  0  0  0  0  0  0  0
   10.6513  -16.5087   16.5054 C   0  0  0  0  0  0  0  0  0  0  0  0
    9.9547  -16.7966   17.6887 C   0  0  0  0  0  0  0  0  0  0  0  0
    2.0640  -18.6490   22.3842 N   0  0  0  0  0  0  0  0  0  0  0  0
    0.2150  -18.8630   23.1995 C   0  0  0  0  0  0  0  0  0  0  0  0
    0.7070  -17.5717   24.3082 C   0  0  0  0  0  0  0  0  0  0  0  0
   -0.2146  -16.8542   25.6780 C   0  0  0  0  0  0  0  0  0  0  0  0
   -1.5513  -16.8525   25.8992 C   0  0  0  0  0  0  0  0  0  0  0  0
   -2.1189  -17.8348   25.0910 C   0  0  0  0  0  0  0  0  0  0  0  0
   -1.6960  -18.9910   23.5622 C   0  0  0  0  0  0  0  0  0  0  0  0
   -3.4588  -19.7345   24.0842 C   0  0  0  0  0  0  0  0  0  0  0  0
   -4.3668  -19.0172   24.9315 N   0  0  0  0  0  0  0  0  0  0  0  0
   -5.4079  -19.6879   25.6033 C   0  0  0  0  0  0  0  0  0  0  0  0
   -6.1136  -19.4908   26.7602 C   0  0  0  0  0  0  0  0  0  0  0  0
   -6.6467  -20.6349   27.2434 C   0  0  0  0  0  0  0  0  0  0  0  0
   -6.6401  -21.7750   26.4917 C   0  0  0  0  0  0  0  0  0  0  0  0
   -6.1370  -21.9855   25.2321 C   0  0  0  0  0  0  0  0  0  0  0  0
   -5.6294  -20.7987   24.8971 C   0  0  0  0  0  0  0  0  0  0  0  0
   -5.2322  -20.1921   23.8013 N   0  0  0  0  0  0  0  0  0  0  0  0
    5.0761  -18.8959   20.2286 H   0  0  0  0  0  0  0  0  0  0  0  0
    4.4193  -17.6737   21.7175 H   0  0  0  0  0  0  0  0  0  0  0  0
    6.1111  -16.5700   20.7202 H   0  0  0  0  0  0  0  0  0  0  0  0
    5.6799  -16.1396   19.1078 H   0  0  0  0  0  0  0  0  0  0  0  0
    7.4754  -18.7595   16.4396 H   0  0  0  0  0  0  0  0  0  0  0  0
    8.7019  -18.2718   14.3606 H   0  0  0  0  0  0  0  0  0  0  0  0
   10.6954  -16.7965   14.3734 H   0  0  0  0  0  0  0  0  0  0  0  0
   11.5815  -15.9489   16.5397 H   0  0  0  0  0  0  0  0  0  0  0  0
   10.4132  -16.4938   18.6161 H   0  0  0  0  0  0  0  0  0  0  0  0
    2.8631  -18.3255   23.0338 H   0  0  0  0  0  0  0  0  0  0  0  0
    1.7417  -17.1649   24.2100 H   0  0  0  0  0  0  0  0  0  0  0  0
    0.3222  -16.2447   26.4224 H   0  0  0  0  0  0  0  0  0  0  0  0
   -2.0960  -16.2570   26.5994 H   0  0  0  0  0  0  0  0  0  0  0  0
   -2.7831  -18.2029   25.7742 H   0  0  0  0  0  0  0  0  0  0  0  0
   -6.1384  -18.5701   27.2968 H   0  0  0  0  0  0  0  0  0  0  0  0
   -7.2488  -20.7294   28.1033 H   0  0  0  0  0  0  0  0  0  0  0  0
   -7.4851  -22.3773   26.7503 H   0  0  0  0  0  0  0  0  0  0  0  0
   -6.3146  -22.8265   24.5842 H   0  0  0  0  0  0  0  0  0  0  0  0
   -5.4566  -20.3694   22.8178 H   0  0  0  0  0  0  0  0  0  0  0  0
  1  2  2  0
  2  3  1  0
  3  4  1  0
  4  5  1  0
  5  6  2  0
  5  7  2  0
  5  8  1  0
  8  9  2  0
  9 10  1  0
 10 11  2  0
 11 12  1  0
 12 13  2  0
  2 14  1  0
 14 15  1  0
 15 16  2  0
 16 17  1  0
 17 18  2  0
 18 19  1  0
 19 20  2  0
 20 21  1  0
 21 22  2  0
 22 23  1  0
 23 24  2  0
 24 25  1  0
 25 26  2  0
 26 27  1  0
 27 28  2  0
 28 29  1  0
 13  8  1  0
 20 15  1  0
 29 21  1  0
 28 23  1  0
  3 30  1  0
  3 31  1  0
  4 32  1  0
  4 33  1  0
  9 34  1  0
 10 35  1  0
 11 36  1  0
 12 37  1  0
 13 38  1  0
 14 39  1  0
 16 40  1  0
 17 41  1  0
 18 42  1  0
 19 43  1  0
 24 44  1  0
 25 45  1  0
 26 46  1  0
 27 47  1  0
 29 48  1  0
M  END
>  <Energy>  (1046) 
1145.3890200811556

>  <compound_id>  (1046) 
77330

>  <target_id>  (1046) 
1

>  <reference_id>  (1046) 
52

>  <inspiration_ids>  (1046) 
[52, 20]

>  <energy_score>  (1046) 
1055.237859946072

>  <distance_score>  (1046) 
12.622146151550059

>  <path>  (1046) 
/opt/xchem-fragalysis-2/maxwin/BulkDock/SCRATCH/511020/C77330-P52/C77330-P52.minimised.mol

>  <scratch_subdir>  (1046) 
/opt/xchem-fragalysis-2/maxwin/BulkDock/SCRATCH/511020/C77330-P52

>  <fragmenstein_runtime>  (1046) 
35.72975945472717

>  <fragmenstein_outcome>  (1046) 
too moved

>  <fragmenstein_mode>  (1046) 
expansion

>  <fragmenstein_error>  (1046) 


$$$$
C77330-P20
     RDKit          3D

 48 51  0  0  0  0  0  0  0  0999 V2000
    1.8638  -13.1638   25.3613 O   0  0  0  0  0  0  0  0  0  0  0  0
    1.6066  -13.3824   24.2137 C   0  0  0  0  0  0  0  0  0  0  0  0
    3.0624  -12.7221   22.8378 C   0  0  0  0  0  0  0  0  0  0  0  0
    4.2601  -12.6434   21.0783 C   0  0  0  0  0  0  0  0  0  0  0  0
    6.2923  -11.9415   20.2634 S   0  0  0  0  0  0  0  0  0  0  0  0
    7.2389  -12.8543   20.8801 O   0  0  0  0  0  0  0  0  0  0  0  0
    6.0222  -11.0312   21.3222 O   0  0  0  0  0  0  0  0  0  0  0  0
    8.0437  -10.7703   19.0191 C   0  0  0  0  0  0  0  0  0  0  0  0
    9.6467  -11.4658   18.5591 C   0  0  0  0  0  0  0  0  0  0  0  0
   10.6554  -11.8093   17.3960 C   0  0  0  0  0  0  0  0  0  0  0  0
   10.4755  -11.1894   16.2147 C   0  0  0  0  0  0  0  0  0  0  0  0
    9.3246  -10.4660   16.2840 C   0  0  0  0  0  0  0  0  0  0  0  0
    8.2865  -10.5641   17.5535 C   0  0  0  0  0  0  0  0  0  0  0  0
   -0.0715  -14.2210   23.8158 N   0  0  0  0  0  0  0  0  0  0  0  0
   -1.4901  -14.9533   24.9643 C   0  0  0  0  0  0  0  0  0  0  0  0
   -2.1346  -15.7154   24.3030 C   0  0  0  0  0  0  0  0  0  0  0  0
   -3.0454  -15.2197   24.8551 C   0  0  0  0  0  0  0  0  0  0  0  0
   -2.6503  -14.1589   26.2622 C   0  0  0  0  0  0  0  0  0  0  0  0
   -2.1042  -14.7027   27.4570 C   0  0  0  0  0  0  0  0  0  0  0  0
   -2.1543  -15.6394   26.7439 C   0  0  0  0  0  0  0  0  0  0  0  0
   -3.4627  -16.8264   27.6927 C   0  0  0  0  0  0  0  0  0  0  0  0
   -3.8549  -16.3105   29.1596 N   0  0  0  0  0  0  0  0  0  0  0  0
   -5.4044  -16.6826   29.7220 C   0  0  0  0  0  0  0  0  0  0  0  0
   -6.1532  -15.8958   30.5943 C   0  0  0  0  0  0  0  0  0  0  0  0
   -7.4479  -15.7061   30.1341 C   0  0  0  0  0  0  0  0  0  0  0  0
   -7.9767  -16.4886   29.0922 C   0  0  0  0  0  0  0  0  0  0  0  0
   -7.3696  -17.6647   28.6431 C   0  0  0  0  0  0  0  0  0  0  0  0
   -6.0143  -17.7197   28.9047 C   0  0  0  0  0  0  0  0  0  0  0  0
   -4.8312  -18.0685   27.6984 N   0  0  0  0  0  0  0  0  0  0  0  0
    2.8588  -11.6869   22.9694 H   0  0  0  0  0  0  0  0  0  0  0  0
    3.6550  -12.8682   23.6920 H   0  0  0  0  0  0  0  0  0  0  0  0
    3.8271  -12.9559   20.1694 H   0  0  0  0  0  0  0  0  0  0  0  0
    4.8554  -13.5275   21.0681 H   0  0  0  0  0  0  0  0  0  0  0  0
   10.5804  -10.8573   18.9128 H   0  0  0  0  0  0  0  0  0  0  0  0
   11.5847  -12.3219   17.6359 H   0  0  0  0  0  0  0  0  0  0  0  0
   11.1355  -11.2525   15.3670 H   0  0  0  0  0  0  0  0  0  0  0  0
    8.9131  -10.0818   15.3833 H   0  0  0  0  0  0  0  0  0  0  0  0
    8.4272  -11.6035   17.1871 H   0  0  0  0  0  0  0  0  0  0  0  0
   -0.1821  -14.2618   22.8084 H   0  0  0  0  0  0  0  0  0  0  0  0
   -2.4044  -16.6848   24.8456 H   0  0  0  0  0  0  0  0  0  0  0  0
   -3.8536  -15.1974   24.0811 H   0  0  0  0  0  0  0  0  0  0  0  0
   -2.9384  -13.1103   25.9791 H   0  0  0  0  0  0  0  0  0  0  0  0
   -2.0852  -14.6065   28.5146 H   0  0  0  0  0  0  0  0  0  0  0  0
   -5.6858  -15.1771   31.2566 H   0  0  0  0  0  0  0  0  0  0  0  0
   -8.0306  -14.8773   30.5321 H   0  0  0  0  0  0  0  0  0  0  0  0
   -8.9321  -16.2031   28.6505 H   0  0  0  0  0  0  0  0  0  0  0  0
   -7.8121  -18.2190   27.8476 H   0  0  0  0  0  0  0  0  0  0  0  0
   -4.9777  -18.8301   27.0562 H   0  0  0  0  0  0  0  0  0  0  0  0
  1  2  2  0
  2  3  1  0
  3  4  1  0
  4  5  1  0
  5  6  2  0
  5  7  2  0
  5  8  1  0
  8  9  2  0
  9 10  1  0
 10 11  2  0
 11 12  1  0
 12 13  2  0
  2 14  1  0
 14 15  1  0
 15 16  2  0
 16 17  1  0
 17 18  2  0
 18 19  1  0
 19 20  2  0
 20 21  1  0
 21 22  2  0
 22 23  1  0
 23 24  2  0
 24 25  1  0
 25 26  2  0
 26 27  1  0
 27 28  2  0
 28 29  1  0
 13  8  1  0
 20 15  1  0
 29 21  1  0
 28 23  1  0
  3 30  1  0
  3 31  1  0
  4 32  1  0
  4 33  1  0
  9 34  1  0
 10 35  1  0
 11 36  1  0
 12 37  1  0
 13 38  1  0
 14 39  1  0
 16 40  1  0
 17 41  1  0
 18 42  1  0
 19 43  1  0
 24 44  1  0
 25 45  1  0
 26 46  1  0
 27 47  1  0
 29 48  1  0
M  END
>  <Energy>  (1047) 
2020.1152987008272

>  <compound_id>  (1047) 
77330

>  <target_id>  (1047) 
1

>  <reference_id>  (1047) 
20

>  <inspiration_ids>  (1047) 
[52, 20]

>  <energy_score>  (1047) 
1929.9641385657665

>  <distance_score>  (1047) 
9.859987740417711

>  <path>  (1047) 
/opt/xchem-fragalysis-2/maxwin/BulkDock/SCRATCH/511020/C77330-P20/C77330-P20.minimised.mol

>  <scratch_subdir>  (1047) 
/opt/xchem-fragalysis-2/maxwin/BulkDock/SCRATCH/511020/C77330-P20

>  <fragmenstein_runtime>  (1047) 
55.52560067176819

>  <fragmenstein_outcome>  (1047) 
too moved

>  <fragmenstein_mode>  (1047) 
expansion

>  <fragmenstein_error>  (1047) 


$$$$
C77331-P52
     RDKit          3D

 48 51  0  0  0  0  0  0  0  0999 V2000
    3.1616  -12.5214   24.6009 O   0  0  0  0  0  0  0  0  0  0  0  0
    3.6415  -12.7029   25.6909 C   0  0  0  0  0  0  0  0  0  0  0  0
    4.9212  -11.2143   26.0851 C   0  0  0  0  0  0  0  0  0  0  0  0
    5.6925   -9.9215   25.0749 C   0  0  0  0  0  0  0  0  0  0  0  0
    7.5657   -9.7641   24.9519 S   0  0  0  0  0  0  0  0  0  0  0  0
    8.0345  -10.8219   24.0825 O   0  0  0  0  0  0  0  0  0  0  0  0
    8.1174   -9.6081   26.2822 O   0  0  0  0  0  0  0  0  0  0  0  0
    8.1752   -8.2806   24.0942 C   0  0  0  0  0  0  0  0  0  0  0  0
    7.8168   -6.9983   24.4937 C   0  0  0  0  0  0  0  0  0  0  0  0
    8.5965   -5.9078   24.0694 C   0  0  0  0  0  0  0  0  0  0  0  0
    9.7054   -6.0797   23.2350 C   0  0  0  0  0  0  0  0  0  0  0  0
   10.0500   -7.3569   22.8169 C   0  0  0  0  0  0  0  0  0  0  0  0
    9.2986   -8.4502   23.2508 C   0  0  0  0  0  0  0  0  0  0  0  0
    3.0465  -14.1182   26.8383 N   0  0  0  0  0  0  0  0  0  0  0  0
    1.5587  -15.4070   26.6646 C   0  0  0  0  0  0  0  0  0  0  0  0
    0.5579  -15.2852   27.5643 C   0  0  0  0  0  0  0  0  0  0  0  0
   -1.3015  -15.8177   27.2161 C   0  0  0  0  0  0  0  0  0  0  0  0
   -2.9289  -16.2836   26.9115 C   0  0  0  0  0  0  0  0  0  0  0  0
   -4.6646  -17.0633   27.7394 C   0  0  0  0  0  0  0  0  0  0  0  0
   -4.8889  -17.2457   29.1075 N   0  0  0  0  0  0  0  0  0  0  0  0
   -6.1199  -17.9234   29.6612 C   0  0  0  0  0  0  0  0  0  0  0  0
   -6.1828  -18.5889   31.4968 C   0  0  0  0  0  0  0  0  0  0  0  0
   -7.6179  -19.4410   32.3916 C   0  0  0  0  0  0  0  0  0  0  0  0
   -9.3980  -19.6879   31.2990 C   0  0  0  0  0  0  0  0  0  0  0  0
   -9.4921  -19.0734   29.3916 C   0  0  0  0  0  0  0  0  0  0  0  0
   -7.6913  -18.2210   28.6219 C   0  0  0  0  0  0  0  0  0  0  0  0
   -6.3629  -17.7437   27.4575 N   0  0  0  0  0  0  0  0  0  0  0  0
   -1.7528  -16.8559   26.1055 C   0  0  0  0  0  0  0  0  0  0  0  0
    0.1254  -16.5073   26.0532 C   0  0  0  0  0  0  0  0  0  0  0  0
    4.6293  -10.6815   26.9933 H   0  0  0  0  0  0  0  0  0  0  0  0
    5.9806  -11.3599   25.8620 H   0  0  0  0  0  0  0  0  0  0  0  0
    5.4061   -8.9657   25.5239 H   0  0  0  0  0  0  0  0  0  0  0  0
    5.4765  -10.1370   24.0302 H   0  0  0  0  0  0  0  0  0  0  0  0
    7.0121   -6.8355   25.2071 H   0  0  0  0  0  0  0  0  0  0  0  0
    8.3780   -4.9218   24.4706 H   0  0  0  0  0  0  0  0  0  0  0  0
   10.3237   -5.2268   22.9641 H   0  0  0  0  0  0  0  0  0  0  0  0
   10.9293   -7.5153   22.1966 H   0  0  0  0  0  0  0  0  0  0  0  0
    9.6345   -9.4531   22.9803 H   0  0  0  0  0  0  0  0  0  0  0  0
    3.6453  -14.1506   27.6696 H   0  0  0  0  0  0  0  0  0  0  0  0
    0.7593  -14.6011   28.4076 H   0  0  0  0  0  0  0  0  0  0  0  0
   -0.7851  -16.7082   27.6513 H   0  0  0  0  0  0  0  0  0  0  0  0
   -5.2788  -18.3199   32.0510 H   0  0  0  0  0  0  0  0  0  0  0  0
   -7.5734  -19.7087   33.4421 H   0  0  0  0  0  0  0  0  0  0  0  0
  -10.2461  -20.2062   31.7548 H   0  0  0  0  0  0  0  0  0  0  0  0
   -9.9650  -19.9235   28.8036 H   0  0  0  0  0  0  0  0  0  0  0  0
   -6.5614  -17.9192   26.4944 H   0  0  0  0  0  0  0  0  0  0  0  0
   -2.0894  -17.7458   25.5872 H   0  0  0  0  0  0  0  0  0  0  0  0
    0.3863  -17.1964   25.2399 H   0  0  0  0  0  0  0  0  0  0  0  0
  1  2  2  0
  2  3  1  0
  3  4  1  0
  4  5  1  0
  5  6  2  0
  5  7  2  0
  5  8  1  0
  8  9  2  0
  9 10  1  0
 10 11  2  0
 11 12  1  0
 12 13  2  0
  2 14  1  0
 14 15  1  0
 15 16  2  0
 16 17  1  0
 17 18  2  0
 18 19  1  0
 19 20  2  0
 20 21  1  0
 21 22  2  0
 22 23  1  0
 23 24  2  0
 24 25  1  0
 25 26  2  0
 26 27  1  0
 18 28  1  0
 28 29  2  0
 13  8  1  0
 29 15  1  0
 27 19  1  0
 26 21  1  0
  3 30  1  0
  3 31  1  0
  4 32  1  0
  4 33  1  0
  9 34  1  0
 10 35  1  0
 11 36  1  0
 12 37  1  0
 13 38  1  0
 14 39  1  0
 16 40  1  0
 17 41  1  0
 22 42  1  0
 23 43  1  0
 24 44  1  0
 25 45  1  0
 27 46  1  0
 28 47  1  0
 29 48  1  0
M  END
>  <Energy>  (1048) 
2071.5707866487146

>  <compound_id>  (1048) 
77331

>  <target_id>  (1048) 
1

>  <reference_id>  (1048) 
52

>  <inspiration_ids>  (1048) 
[52, 20]

>  <energy_score>  (1048) 
1987.4566890493243

>  <distance_score>  (1048) 
9.289787217530163

>  <path>  (1048) 
/opt/xchem-fragalysis-2/maxwin/BulkDock/SCRATCH/511020/C77331-P52/C77331-P52.minimised.mol

>  <scratch_subdir>  (1048) 
/opt/xchem-fragalysis-2/maxwin/BulkDock/SCRATCH/511020/C77331-P52

>  <fragmenstein_runtime>  (1048) 
48.66342782974243

>  <fragmenstein_outcome>  (1048) 
too moved

>  <fragmenstein_mode>  (1048) 
expansion

>  <fragmenstein_error>  (1048) 


$$$$
C77331-P20
     RDKit          3D

 48 51  0  0  0  0  0  0  0  0999 V2000
    3.9009  -13.1483   20.4120 O   0  0  0  0  0  0  0  0  0  0  0  0
    4.2388  -12.5204   21.3537 C   0  0  0  0  0  0  0  0  0  0  0  0
    6.0175  -11.3834   20.8422 C   0  0  0  0  0  0  0  0  0  0  0  0
    7.7436  -10.4310   19.8462 C   0  0  0  0  0  0  0  0  0  0  0  0
    9.7342   -8.8299   20.2402 S   0  0  0  0  0  0  0  0  0  0  0  0
    9.2964   -7.6539   19.7756 O   0  0  0  0  0  0  0  0  0  0  0  0
   10.1447   -8.6998   21.7700 O   0  0  0  0  0  0  0  0  0  0  0  0
   11.5867   -8.0781   21.2745 C   0  0  0  0  0  0  0  0  0  0  0  0
   12.5836   -8.9608   21.8204 C   0  0  0  0  0  0  0  0  0  0  0  0
   13.7434   -8.4074   22.3710 C   0  0  0  0  0  0  0  0  0  0  0  0
   13.9239   -7.0201   22.4432 C   0  0  0  0  0  0  0  0  0  0  0  0
   12.9476   -6.1457   21.9782 C   0  0  0  0  0  0  0  0  0  0  0  0
   11.7885   -6.6516   21.3934 C   0  0  0  0  0  0  0  0  0  0  0  0
    3.2092  -12.8687   23.0335 N   0  0  0  0  0  0  0  0  0  0  0  0
    1.7969  -14.1914   23.4971 C   0  0  0  0  0  0  0  0  0  0  0  0
    0.0976  -14.2320   23.1298 C   0  0  0  0  0  0  0  0  0  0  0  0
   -1.3937  -15.1058   23.7613 C   0  0  0  0  0  0  0  0  0  0  0  0
   -2.2331  -15.4509   24.8273 C   0  0  0  0  0  0  0  0  0  0  0  0
   -2.4233  -17.0593   25.8896 C   0  0  0  0  0  0  0  0  0  0  0  0
   -2.0324  -18.3484   25.8005 N   0  0  0  0  0  0  0  0  0  0  0  0
   -2.7395  -19.1829   26.7398 C   0  0  0  0  0  0  0  0  0  0  0  0
   -2.8481  -20.5739   26.9557 C   0  0  0  0  0  0  0  0  0  0  0  0
   -3.4175  -21.0181   28.1491 C   0  0  0  0  0  0  0  0  0  0  0  0
   -4.0380  -20.1070   28.9931 C   0  0  0  0  0  0  0  0  0  0  0  0
   -4.2885  -18.7921   28.6101 C   0  0  0  0  0  0  0  0  0  0  0  0
   -3.4519  -18.3706   27.5671 C   0  0  0  0  0  0  0  0  0  0  0  0
   -2.8199  -17.1191   27.2803 N   0  0  0  0  0  0  0  0  0  0  0  0
   -1.3336  -14.3934   24.9860 C   0  0  0  0  0  0  0  0  0  0  0  0
    0.5529  -14.1640   24.5641 C   0  0  0  0  0  0  0  0  0  0  0  0
    6.5871  -12.3357   20.9637 H   0  0  0  0  0  0  0  0  0  0  0  0
    5.7309  -11.5596   19.7884 H   0  0  0  0  0  0  0  0  0  0  0  0
    8.2143  -11.4323   19.7678 H   0  0  0  0  0  0  0  0  0  0  0  0
    7.6596  -10.4125   18.7750 H   0  0  0  0  0  0  0  0  0  0  0  0
   12.4814  -10.0384   21.7799 H   0  0  0  0  0  0  0  0  0  0  0  0
   14.5176   -9.0653   22.7598 H   0  0  0  0  0  0  0  0  0  0  0  0
   14.8346   -6.6204   22.8838 H   0  0  0  0  0  0  0  0  0  0  0  0
   13.0949   -5.0696   22.0416 H   0  0  0  0  0  0  0  0  0  0  0  0
   11.0977   -5.9287   20.9704 H   0  0  0  0  0  0  0  0  0  0  0  0
    3.6104  -12.3762   23.7497 H   0  0  0  0  0  0  0  0  0  0  0  0
   -0.1855  -14.1606   22.1464 H   0  0  0  0  0  0  0  0  0  0  0  0
   -2.0124  -14.8865   22.9075 H   0  0  0  0  0  0  0  0  0  0  0  0
   -2.4010  -21.2990   26.2829 H   0  0  0  0  0  0  0  0  0  0  0  0
   -3.3371  -22.0648   28.4266 H   0  0  0  0  0  0  0  0  0  0  0  0
   -4.3370  -20.4059   29.9928 H   0  0  0  0  0  0  0  0  0  0  0  0
   -4.7746  -18.0969   29.2887 H   0  0  0  0  0  0  0  0  0  0  0  0
   -2.9644  -16.3132   27.8615 H   0  0  0  0  0  0  0  0  0  0  0  0
   -1.7593  -13.5891   25.5868 H   0  0  0  0  0  0  0  0  0  0  0  0
    0.9989  -13.5722   25.5192 H   0  0  0  0  0  0  0  0  0  0  0  0
  1  2  2  0
  2  3  1  0
  3  4  1  0
  4  5  1  0
  5  6  2  0
  5  7  2  0
  5  8  1  0
  8  9  2  0
  9 10  1  0
 10 11  2  0
 11 12  1  0
 12 13  2  0
  2 14  1  0
 14 15  1  0
 15 16  2  0
 16 17  1  0
 17 18  2  0
 18 19  1  0
 19 20  2  0
 20 21  1  0
 21 22  2  0
 22 23  1  0
 23 24  2  0
 24 25  1  0
 25 26  2  0
 26 27  1  0
 18 28  1  0
 28 29  2  0
 13  8  1  0
 29 15  1  0
 27 19  1  0
 26 21  1  0
  3 30  1  0
  3 31  1  0
  4 32  1  0
  4 33  1  0
  9 34  1  0
 10 35  1  0
 11 36  1  0
 12 37  1  0
 13 38  1  0
 14 39  1  0
 16 40  1  0
 17 41  1  0
 22 42  1  0
 23 43  1  0
 24 44  1  0
 25 45  1  0
 27 46  1  0
 28 47  1  0
 29 48  1  0
M  END
>  <Energy>  (1049) 
1740.4387591136574

>  <compound_id>  (1049) 
77331

>  <target_id>  (1049) 
1

>  <reference_id>  (1049) 
20

>  <inspiration_ids>  (1049) 
[52, 20]

>  <energy_score>  (1049) 
1656.3246615142712

>  <distance_score>  (1049) 
9.733021835411153

>  <path>  (1049) 
/opt/xchem-fragalysis-2/maxwin/BulkDock/SCRATCH/511020/C77331-P20/C77331-P20.minimised.mol

>  <scratch_subdir>  (1049) 
/opt/xchem-fragalysis-2/maxwin/BulkDock/SCRATCH/511020/C77331-P20

>  <fragmenstein_runtime>  (1049) 
44.21438193321228

>  <fragmenstein_outcome>  (1049) 
too moved

>  <fragmenstein_mode>  (1049) 
expansion

>  <fragmenstein_error>  (1049) 


$$$$
C77332-P52
     RDKit          3D

 46 50  0  0  0  0  0  0  0  0999 V2000
    1.1036   -1.0347   22.2907 O   0  0  0  0  0  0  0  0  0  0  0  0
    0.9667   -2.1662   22.7239 C   0  0  0  0  0  0  0  0  0  0  0  0
   -0.1234   -2.6508   23.6878 C   0  0  0  0  0  0  0  0  0  0  0  0
    0.2190   -4.1057   23.8541 C   0  0  0  0  0  0  0  0  0  0  0  0
   -0.4268   -5.0772   24.6206 C   0  0  0  0  0  0  0  0  0  0  0  0
    0.0826   -6.3744   24.6133 C   0  0  0  0  0  0  0  0  0  0  0  0
   -0.5305   -7.5405   25.4060 C   0  0  0  0  0  0  0  0  0  0  0  0
    0.0859   -8.5952   25.2099 O   0  0  0  0  0  0  0  0  0  0  0  0
   -1.7217   -7.4237   26.5359 C   0  0  0  0  0  0  0  0  0  0  0  0
   -3.5801   -8.2738   26.2203 S   0  0  0  0  0  0  0  0  0  0  0  0
   -4.3205   -9.1276   27.7710 C   0  0  0  0  0  0  0  0  0  0  0  0
   -3.6414   -9.1943   28.9041 N   0  0  0  0  0  0  0  0  0  0  0  0
   -4.2566  -10.1375   29.7143 C   0  0  0  0  0  0  0  0  0  0  0  0
   -3.7926  -10.7437   30.9087 C   0  0  0  0  0  0  0  0  0  0  0  0
   -4.5074  -11.7840   31.5303 C   0  0  0  0  0  0  0  0  0  0  0  0
   -5.6969  -12.2282   30.9838 C   0  0  0  0  0  0  0  0  0  0  0  0
   -6.1906  -11.6241   29.8215 C   0  0  0  0  0  0  0  0  0  0  0  0
   -5.4695  -10.5517   29.1882 C   0  0  0  0  0  0  0  0  0  0  0  0
   -5.6046   -9.8251   27.9485 N   0  0  0  0  0  0  0  0  0  0  0  0
   -6.7776  -10.0495   27.0977 C   0  0  0  0  0  0  0  0  0  0  0  0
   -7.9837  -10.5427   27.6605 C   0  0  0  0  0  0  0  0  0  0  0  0
   -8.9904  -11.1440   26.8900 C   0  0  0  0  0  0  0  0  0  0  0  0
   -8.8566  -11.1799   25.5136 C   0  0  0  0  0  0  0  0  0  0  0  0
   -7.7533  -10.5546   24.9305 C   0  0  0  0  0  0  0  0  0  0  0  0
   -6.7251   -9.9763   25.7123 C   0  0  0  0  0  0  0  0  0  0  0  0
    1.2566   -6.6335   23.8133 C   0  0  0  0  0  0  0  0  0  0  0  0
    1.9018   -5.6494   23.0417 C   0  0  0  0  0  0  0  0  0  0  0  0
    1.3539   -4.3942   23.0847 C   0  0  0  0  0  0  0  0  0  0  0  0
    1.7795   -3.2534   22.4280 N   0  0  0  0  0  0  0  0  0  0  0  0
   -0.0417   -2.1134   24.6357 H   0  0  0  0  0  0  0  0  0  0  0  0
   -1.1055   -2.5251   23.2254 H   0  0  0  0  0  0  0  0  0  0  0  0
   -1.3068   -4.8109   25.1959 H   0  0  0  0  0  0  0  0  0  0  0  0
   -1.9438   -6.3700   26.7173 H   0  0  0  0  0  0  0  0  0  0  0  0
   -1.3458   -7.8562   27.4660 H   0  0  0  0  0  0  0  0  0  0  0  0
   -2.8363  -10.4230   31.3129 H   0  0  0  0  0  0  0  0  0  0  0  0
   -4.1068  -12.2476   32.4280 H   0  0  0  0  0  0  0  0  0  0  0  0
   -6.2346  -13.0544   31.4419 H   0  0  0  0  0  0  0  0  0  0  0  0
   -7.0731  -12.0705   29.3775 H   0  0  0  0  0  0  0  0  0  0  0  0
   -8.1726  -10.4519   28.7283 H   0  0  0  0  0  0  0  0  0  0  0  0
   -9.8790  -11.5467   27.3688 H   0  0  0  0  0  0  0  0  0  0  0  0
   -9.6269  -11.6299   24.8936 H   0  0  0  0  0  0  0  0  0  0  0  0
   -7.6663  -10.5326   23.8456 H   0  0  0  0  0  0  0  0  0  0  0  0
   -5.8611   -9.5767   25.1927 H   0  0  0  0  0  0  0  0  0  0  0  0
    1.6746   -7.6420   23.7995 H   0  0  0  0  0  0  0  0  0  0  0  0
    2.7795   -5.8847   22.4521 H   0  0  0  0  0  0  0  0  0  0  0  0
    2.5709   -3.1889   21.8048 H   0  0  0  0  0  0  0  0  0  0  0  0
  1  2  2  0
  2  3  1  0
  3  4  1  0
  4  5  2  0
  5  6  1  0
  6  7  1  0
  7  8  2  0
  7  9  1  0
  9 10  1  0
 10 11  1  0
 11 12  2  0
 12 13  1  0
 13 14  2  0
 14 15  1  0
 15 16  2  0
 16 17  1  0
 17 18  2  0
 18 19  1  0
 19 20  1  0
 20 21  2  0
 21 22  1  0
 22 23  2  0
 23 24  1  0
 24 25  2  0
  6 26  2  0
 26 27  1  0
 27 28  2  0
 28 29  1  0
 29  2  1  0
 28  4  1  0
 19 11  1  0
 25 20  1  0
 18 13  1  0
  3 30  1  0
  3 31  1  0
  5 32  1  0
  9 33  1  0
  9 34  1  0
 14 35  1  0
 15 36  1  0
 16 37  1  0
 17 38  1  0
 21 39  1  0
 22 40  1  0
 23 41  1  0
 24 42  1  0
 25 43  1  0
 26 44  1  0
 27 45  1  0
 29 46  1  0
M  END
>  <Energy>  (1050) 
166.69230108681657

>  <compound_id>  (1050) 
77332

>  <target_id>  (1050) 
1

>  <reference_id>  (1050) 
52

>  <inspiration_ids>  (1050) 
[52, 20]

>  <energy_score>  (1050) 
25.1581164377489

>  <distance_score>  (1050) 
14.613135935032878

>  <path>  (1050) 
/opt/xchem-fragalysis-2/maxwin/BulkDock/SCRATCH/511020/C77332-P52/C77332-P52.minimised.mol

>  <scratch_subdir>  (1050) 
/opt/xchem-fragalysis-2/maxwin/BulkDock/SCRATCH/511020/C77332-P52

>  <fragmenstein_runtime>  (1050) 
36.819803953170776

>  <fragmenstein_outcome>  (1050) 
too moved

>  <fragmenstein_mode>  (1050) 
expansion

>  <fragmenstein_error>  (1050) 


$$$$
C77332-P20
     RDKit          3D

 46 50  0  0  0  0  0  0  0  0999 V2000
    2.2845   -8.7801   21.7965 O   0  0  0  0  0  0  0  0  0  0  0  0
    1.9073   -9.8483   22.2509 C   0  0  0  0  0  0  0  0  0  0  0  0
    0.4976  -10.4672   22.0575 C   0  0  0  0  0  0  0  0  0  0  0  0
    0.6106  -11.8603   22.8385 C   0  0  0  0  0  0  0  0  0  0  0  0
   -0.3206  -13.6056   23.1494 C   0  0  0  0  0  0  0  0  0  0  0  0
   -1.0162  -14.7058   24.4290 C   0  0  0  0  0  0  0  0  0  0  0  0
   -2.3365  -15.2853   26.0124 C   0  0  0  0  0  0  0  0  0  0  0  0
   -2.4927  -14.0640   26.1534 O   0  0  0  0  0  0  0  0  0  0  0  0
   -3.4034  -16.7621   27.3976 C   0  0  0  0  0  0  0  0  0  0  0  0
   -5.3296  -17.4755   29.0916 S   0  0  0  0  0  0  0  0  0  0  0  0
   -7.6758  -18.4170   29.4094 C   0  0  0  0  0  0  0  0  0  0  0  0
   -8.0358  -18.2343   31.1321 N   0  0  0  0  0  0  0  0  0  0  0  0
   -9.7167  -19.4676   31.7988 C   0  0  0  0  0  0  0  0  0  0  0  0
  -10.5502  -19.6866   32.9067 C   0  0  0  0  0  0  0  0  0  0  0  0
  -11.5373  -20.7017   32.8833 C   0  0  0  0  0  0  0  0  0  0  0  0
  -11.7026  -21.5847   31.8289 C   0  0  0  0  0  0  0  0  0  0  0  0
  -11.1080  -21.4345   30.5556 C   0  0  0  0  0  0  0  0  0  0  0  0
  -10.1652  -20.3695   30.1070 C   0  0  0  0  0  0  0  0  0  0  0  0
   -9.0245  -19.6620   28.5281 N   0  0  0  0  0  0  0  0  0  0  0  0
   -9.9254  -21.3495   28.1178 C   0  0  0  0  0  0  0  0  0  0  0  0
  -11.3680  -21.6468   27.9169 C   0  0  0  0  0  0  0  0  0  0  0  0
  -12.0252  -22.9059   27.7087 C   0  0  0  0  0  0  0  0  0  0  0  0
  -11.3600  -24.0869   27.8105 C   0  0  0  0  0  0  0  0  0  0  0  0
  -10.0229  -24.0006   28.0751 C   0  0  0  0  0  0  0  0  0  0  0  0
   -9.3026  -22.7359   28.1171 C   0  0  0  0  0  0  0  0  0  0  0  0
    0.6435  -14.1340   24.5743 C   0  0  0  0  0  0  0  0  0  0  0  0
    2.0858  -13.0066   24.1596 C   0  0  0  0  0  0  0  0  0  0  0  0
    1.9383  -11.7881   23.4123 C   0  0  0  0  0  0  0  0  0  0  0  0
    2.6782  -10.7153   23.0106 N   0  0  0  0  0  0  0  0  0  0  0  0
   -0.2454   -9.7926   22.4665 H   0  0  0  0  0  0  0  0  0  0  0  0
    0.3424  -10.4829   20.9719 H   0  0  0  0  0  0  0  0  0  0  0  0
   -0.1603  -14.3453   22.3565 H   0  0  0  0  0  0  0  0  0  0  0  0
   -3.2862  -16.0302   28.1633 H   0  0  0  0  0  0  0  0  0  0  0  0
   -2.7125  -17.6002   27.3659 H   0  0  0  0  0  0  0  0  0  0  0  0
  -10.4700  -18.9972   33.7394 H   0  0  0  0  0  0  0  0  0  0  0  0
  -12.1627  -20.8380   33.7682 H   0  0  0  0  0  0  0  0  0  0  0  0
  -12.3739  -22.4301   31.9844 H   0  0  0  0  0  0  0  0  0  0  0  0
  -11.3611  -22.2968   29.9604 H   0  0  0  0  0  0  0  0  0  0  0  0
  -12.1184  -20.9048   28.1527 H   0  0  0  0  0  0  0  0  0  0  0  0
  -13.0995  -22.9533   27.6049 H   0  0  0  0  0  0  0  0  0  0  0  0
  -11.8770  -25.0378   27.7564 H   0  0  0  0  0  0  0  0  0  0  0  0
   -9.5472  -24.9484   28.3058 H   0  0  0  0  0  0  0  0  0  0  0  0
   -8.2111  -22.7681   28.0733 H   0  0  0  0  0  0  0  0  0  0  0  0
    0.9148  -13.7635   25.7166 H   0  0  0  0  0  0  0  0  0  0  0  0
    3.0932  -13.3947   24.3380 H   0  0  0  0  0  0  0  0  0  0  0  0
    3.6406  -10.5273   23.2454 H   0  0  0  0  0  0  0  0  0  0  0  0
  1  2  2  0
  2  3  1  0
  3  4  1  0
  4  5  2  0
  5  6  1  0
  6  7  1  0
  7  8  2  0
  7  9  1  0
  9 10  1  0
 10 11  1  0
 11 12  2  0
 12 13  1  0
 13 14  2  0
 14 15  1  0
 15 16  2  0
 16 17  1  0
 17 18  2  0
 18 19  1  0
 19 20  1  0
 20 21  2  0
 21 22  1  0
 22 23  2  0
 23 24  1  0
 24 25  2  0
  6 26  2  0
 26 27  1  0
 27 28  2  0
 28 29  1  0
 29  2  1  0
 28  4  1  0
 19 11  1  0
 25 20  1  0
 18 13  1  0
  3 30  1  0
  3 31  1  0
  5 32  1  0
  9 33  1  0
  9 34  1  0
 14 35  1  0
 15 36  1  0
 16 37  1  0
 17 38  1  0
 21 39  1  0
 22 40  1  0
 23 41  1  0
 24 42  1  0
 25 43  1  0
 26 44  1  0
 27 45  1  0
 29 46  1  0
M  END
>  <Energy>  (1051) 
2503.4076518768748

>  <compound_id>  (1051) 
77332

>  <target_id>  (1051) 
1

>  <reference_id>  (1051) 
20

>  <inspiration_ids>  (1051) 
[52, 20]

>  <energy_score>  (1051) 
2361.8734672278392

>  <distance_score>  (1051) 
12.076610708558018

>  <path>  (1051) 
/opt/xchem-fragalysis-2/maxwin/BulkDock/SCRATCH/511020/C77332-P20/C77332-P20.minimised.mol

>  <scratch_subdir>  (1051) 
/opt/xchem-fragalysis-2/maxwin/BulkDock/SCRATCH/511020/C77332-P20

>  <fragmenstein_runtime>  (1051) 
28.380656719207764

>  <fragmenstein_outcome>  (1051) 
too moved

>  <fragmenstein_mode>  (1051) 
expansion

>  <fragmenstein_error>  (1051) 


$$$$
C77333-P52
     RDKit          3D

 37 40  0  0  0  0  0  0  0  0999 V2000
   -3.4536  -21.9198   25.4872 C   0  0  0  0  0  0  0  0  0  0  0  0
   -3.7682  -21.3830   27.1927 S   0  0  0  0  0  0  0  0  0  0  0  0
   -4.3114  -19.7312   26.8497 C   0  0  0  0  0  0  0  0  0  0  0  0
   -5.6571  -19.3819   26.6959 C   0  0  0  0  0  0  0  0  0  0  0  0
   -6.0113  -18.1172   26.1776 C   0  0  0  0  0  0  0  0  0  0  0  0
   -4.9837  -17.2382   25.7728 C   0  0  0  0  0  0  0  0  0  0  0  0
   -4.9975  -16.0221   25.0986 N   0  0  0  0  0  0  0  0  0  0  0  0
   -3.7208  -15.6508   24.8899 C   0  0  0  0  0  0  0  0  0  0  0  0
   -3.2229  -14.2869   24.3142 C   0  0  0  0  0  0  0  0  0  0  0  0
   -4.0146  -13.3321   24.8384 C   0  0  0  0  0  0  0  0  0  0  0  0
   -3.3193  -12.2120   24.7536 C   0  0  0  0  0  0  0  0  0  0  0  0
   -1.9209  -12.1000   24.2865 N   0  0  0  0  0  0  0  0  0  0  0  0
   -1.1352  -12.8181   23.1544 C   0  0  0  0  0  0  0  0  0  0  0  0
   -0.8267  -11.5158   21.5748 C   0  0  0  0  0  0  0  0  0  0  0  0
   -2.1100  -11.0285   20.2685 C   0  0  0  0  0  0  0  0  0  0  0  0
   -2.2219   -9.9762   19.3008 C   0  0  0  0  0  0  0  0  0  0  0  0
   -1.1517   -9.1342   19.1547 C   0  0  0  0  0  0  0  0  0  0  0  0
   -0.0486   -9.3689   19.9736 C   0  0  0  0  0  0  0  0  0  0  0  0
    0.1105  -10.3937   21.2328 C   0  0  0  0  0  0  0  0  0  0  0  0
   -1.8711  -14.0097   23.3996 N   0  0  0  0  0  0  0  0  0  0  0  0
   -2.9237  -16.5587   25.5600 N   0  0  0  0  0  0  0  0  0  0  0  0
   -3.6766  -17.6001   26.0288 C   0  0  0  0  0  0  0  0  0  0  0  0
   -3.2975  -18.8057   26.6046 C   0  0  0  0  0  0  0  0  0  0  0  0
   -4.3889  -21.9562   24.9220 H   0  0  0  0  0  0  0  0  0  0  0  0
   -3.0082  -22.9172   25.4970 H   0  0  0  0  0  0  0  0  0  0  0  0
   -2.7549  -21.2431   24.9875 H   0  0  0  0  0  0  0  0  0  0  0  0
   -6.4388  -20.1054   26.9150 H   0  0  0  0  0  0  0  0  0  0  0  0
   -7.0496  -17.8571   26.0061 H   0  0  0  0  0  0  0  0  0  0  0  0
   -4.9755  -13.4453   25.3045 H   0  0  0  0  0  0  0  0  0  0  0  0
   -3.7966  -11.2498   24.9436 H   0  0  0  0  0  0  0  0  0  0  0  0
   -2.8019  -11.8383   19.9445 H   0  0  0  0  0  0  0  0  0  0  0  0
   -3.0626   -9.9421   18.6151 H   0  0  0  0  0  0  0  0  0  0  0  0
   -1.1158   -8.3835   18.3734 H   0  0  0  0  0  0  0  0  0  0  0  0
    0.8584   -8.8070   19.7063 H   0  0  0  0  0  0  0  0  0  0  0  0
    1.1253  -10.4975   21.6810 H   0  0  0  0  0  0  0  0  0  0  0  0
   -1.9228  -16.5047   25.6474 H   0  0  0  0  0  0  0  0  0  0  0  0
   -2.2499  -19.0566   26.7423 H   0  0  0  0  0  0  0  0  0  0  0  0
  1  2  1  0
  2  3  1  0
  3  4  2  0
  4  5  1  0
  5  6  2  0
  6  7  1  0
  7  8  2  0
  8  9  1  0
  9 10  2  0
 10 11  1  0
 11 12  2  0
 12 13  1  0
 13 14  1  0
 14 15  2  0
 15 16  1  0
 16 17  2  0
 17 18  1  0
 18 19  2  0
 13 20  2  0
  8 21  1  0
 21 22  1  0
 22 23  2  0
 23  3  1  0
 22  6  1  0
 20  9  1  0
 19 14  1  0
  1 24  1  0
  1 25  1  0
  1 26  1  0
  4 27  1  0
  5 28  1  0
 10 29  1  0
 11 30  1  0
 15 31  1  0
 16 32  1  0
 17 33  1  0
 18 34  1  0
 19 35  1  0
 21 36  1  0
 23 37  1  0
M  END
>  <Energy>  (1052) 
412.70215179810657

>  <compound_id>  (1052) 
77333

>  <target_id>  (1052) 
1

>  <reference_id>  (1052) 
52

>  <inspiration_ids>  (1052) 
[52, 20]

>  <energy_score>  (1052) 
369.8842771766547

>  <distance_score>  (1052) 
14.473563428882436

>  <path>  (1052) 
/opt/xchem-fragalysis-2/maxwin/BulkDock/SCRATCH/511020/C77333-P52/C77333-P52.minimised.mol

>  <scratch_subdir>  (1052) 
/opt/xchem-fragalysis-2/maxwin/BulkDock/SCRATCH/511020/C77333-P52

>  <fragmenstein_runtime>  (1052) 
19.328278303146362

>  <fragmenstein_outcome>  (1052) 
too moved

>  <fragmenstein_mode>  (1052) 
expansion

>  <fragmenstein_error>  (1052) 


$$$$
C77333-P20
     RDKit          3D

 37 40  0  0  0  0  0  0  0  0999 V2000
    0.1631  -21.3372   26.5149 C   0  0  0  0  0  0  0  0  0  0  0  0
    1.7792  -21.1820   27.3243 S   0  0  0  0  0  0  0  0  0  0  0  0
    2.6717  -20.3113   26.0517 C   0  0  0  0  0  0  0  0  0  0  0  0
    2.7906  -20.8157   24.7533 C   0  0  0  0  0  0  0  0  0  0  0  0
    3.4743  -20.0952   23.7385 C   0  0  0  0  0  0  0  0  0  0  0  0
    4.0199  -18.8233   24.0264 C   0  0  0  0  0  0  0  0  0  0  0  0
    4.4356  -17.7362   23.1993 N   0  0  0  0  0  0  0  0  0  0  0  0
    4.4715  -16.6126   23.9583 C   0  0  0  0  0  0  0  0  0  0  0  0
    3.7890  -14.9582   23.6800 C   0  0  0  0  0  0  0  0  0  0  0  0
    3.5784  -13.9584   24.4888 C   0  0  0  0  0  0  0  0  0  0  0  0
    3.0015  -12.8683   23.7598 C   0  0  0  0  0  0  0  0  0  0  0  0
    3.4026  -12.3651   22.4757 N   0  0  0  0  0  0  0  0  0  0  0  0
    3.5531  -13.2890   21.4669 C   0  0  0  0  0  0  0  0  0  0  0  0
    4.9156  -13.0143   20.2429 C   0  0  0  0  0  0  0  0  0  0  0  0
    4.7031  -13.2919   18.8301 C   0  0  0  0  0  0  0  0  0  0  0  0
    5.6010  -13.0208   17.7718 C   0  0  0  0  0  0  0  0  0  0  0  0
    6.8137  -12.4052   18.0155 C   0  0  0  0  0  0  0  0  0  0  0  0
    7.1164  -12.0643   19.3165 C   0  0  0  0  0  0  0  0  0  0  0  0
    6.2069  -12.3530   20.3762 C   0  0  0  0  0  0  0  0  0  0  0  0
    3.2104  -14.5594   22.2592 N   0  0  0  0  0  0  0  0  0  0  0  0
    4.4911  -17.1220   25.2380 N   0  0  0  0  0  0  0  0  0  0  0  0
    3.9300  -18.3924   25.3266 C   0  0  0  0  0  0  0  0  0  0  0  0
    3.2859  -19.0927   26.3716 C   0  0  0  0  0  0  0  0  0  0  0  0
   -0.2011  -20.3572   26.1935 H   0  0  0  0  0  0  0  0  0  0  0  0
   -0.5526  -21.7564   27.2274 H   0  0  0  0  0  0  0  0  0  0  0  0
    0.2204  -22.0064   25.6527 H   0  0  0  0  0  0  0  0  0  0  0  0
    2.3468  -21.7728   24.4886 H   0  0  0  0  0  0  0  0  0  0  0  0
    3.4882  -20.4655   22.7182 H   0  0  0  0  0  0  0  0  0  0  0  0
    3.7423  -14.0971   25.5401 H   0  0  0  0  0  0  0  0  0  0  0  0
    2.2416  -12.2312   24.1802 H   0  0  0  0  0  0  0  0  0  0  0  0
    3.7950  -13.8111   18.5187 H   0  0  0  0  0  0  0  0  0  0  0  0
    5.3291  -13.3118   16.7600 H   0  0  0  0  0  0  0  0  0  0  0  0
    7.5078  -12.2076   17.2054 H   0  0  0  0  0  0  0  0  0  0  0  0
    8.0548  -11.5625   19.5408 H   0  0  0  0  0  0  0  0  0  0  0  0
    6.5793  -11.9081   21.2862 H   0  0  0  0  0  0  0  0  0  0  0  0
    4.3171  -16.4531   25.9654 H   0  0  0  0  0  0  0  0  0  0  0  0
    3.2181  -18.6690   27.3686 H   0  0  0  0  0  0  0  0  0  0  0  0
  1  2  1  0
  2  3  1  0
  3  4  2  0
  4  5  1  0
  5  6  2  0
  6  7  1  0
  7  8  2  0
  8  9  1  0
  9 10  2  0
 10 11  1  0
 11 12  2  0
 12 13  1  0
 13 14  1  0
 14 15  2  0
 15 16  1  0
 16 17  2  0
 17 18  1  0
 18 19  2  0
 13 20  2  0
  8 21  1  0
 21 22  1  0
 22 23  2  0
 23  3  1  0
 22  6  1  0
 20  9  1  0
 19 14  1  0
  1 24  1  0
  1 25  1  0
  1 26  1  0
  4 27  1  0
  5 28  1  0
 10 29  1  0
 11 30  1  0
 15 31  1  0
 16 32  1  0
 17 33  1  0
 18 34  1  0
 19 35  1  0
 21 36  1  0
 23 37  1  0
M  END
>  <Energy>  (1053) 
265.47621954553114

>  <compound_id>  (1053) 
77333

>  <target_id>  (1053) 
1

>  <reference_id>  (1053) 
20

>  <inspiration_ids>  (1053) 
[52, 20]

>  <energy_score>  (1053) 
222.65834492408476

>  <distance_score>  (1053) 
16.05944827981387

>  <path>  (1053) 
/opt/xchem-fragalysis-2/maxwin/BulkDock/SCRATCH/511020/C77333-P20/C77333-P20.minimised.mol

>  <scratch_subdir>  (1053) 
/opt/xchem-fragalysis-2/maxwin/BulkDock/SCRATCH/511020/C77333-P20

>  <fragmenstein_runtime>  (1053) 
27.873207092285156

>  <fragmenstein_outcome>  (1053) 
too moved

>  <fragmenstein_mode>  (1053) 
expansion

>  <fragmenstein_error>  (1053) 


$$$$
C77334-P52
     RDKit          3D

 48 50  0  0  0  0  0  0  0  0999 V2000
    4.4373  -13.6096   21.6844 C   0  0  0  0  0  0  0  0  0  0  0  0
    4.9544  -13.7569   23.1406 C   0  0  0  0  0  0  0  0  0  0  0  0
    6.4878  -13.8832   23.0748 C   0  0  0  0  0  0  0  0  0  0  0  0
    4.3266  -12.6390   24.1904 C   0  0  0  0  0  0  0  0  0  0  0  0
    3.5521  -12.9167   26.0132 C   0  0  0  0  0  0  0  0  0  0  0  0
    2.7052  -14.2947   27.0537 N   0  0  0  0  0  0  0  0  0  0  0  0
    1.1775  -14.5867   28.1211 C   0  0  0  0  0  0  0  0  0  0  0  0
    0.3824  -14.6353   29.8373 C   0  0  0  0  0  0  0  0  0  0  0  0
   -0.6939  -13.5181   30.2036 C   0  0  0  0  0  0  0  0  0  0  0  0
   -2.0938  -13.7747   31.1093 C   0  0  0  0  0  0  0  0  0  0  0  0
   -2.6289  -15.1339   31.6808 C   0  0  0  0  0  0  0  0  0  0  0  0
   -1.7714  -16.3214   31.4097 C   0  0  0  0  0  0  0  0  0  0  0  0
   -0.1894  -16.1663   30.4687 C   0  0  0  0  0  0  0  0  0  0  0  0
   -2.2456  -17.2712   32.4136 N   0  0  0  0  0  0  0  0  0  0  0  0
   -3.1001  -16.7164   33.2592 C   0  0  0  0  0  0  0  0  0  0  0  0
   -3.4493  -15.4683   32.8256 N   0  0  0  0  0  0  0  0  0  0  0  0
   -4.5593  -14.7458   33.3891 C   0  0  0  0  0  0  0  0  0  0  0  0
    5.2654  -11.3162   23.6551 C   0  0  0  0  0  0  0  0  0  0  0  0
    6.5006  -10.8872   24.1769 C   0  0  0  0  0  0  0  0  0  0  0  0
    7.2724   -9.8884   23.5404 C   0  0  0  0  0  0  0  0  0  0  0  0
    6.8411   -9.2896   22.3626 C   0  0  0  0  0  0  0  0  0  0  0  0
    5.6229   -9.6709   21.8224 C   0  0  0  0  0  0  0  0  0  0  0  0
    4.8590  -10.6627   22.4514 C   0  0  0  0  0  0  0  0  0  0  0  0
    4.9846  -12.8597   21.1086 H   0  0  0  0  0  0  0  0  0  0  0  0
    3.3689  -13.3754   21.6580 H   0  0  0  0  0  0  0  0  0  0  0  0
    4.5719  -14.5576   21.1483 H   0  0  0  0  0  0  0  0  0  0  0  0
    4.5657  -14.7489   23.3509 H   0  0  0  0  0  0  0  0  0  0  0  0
    6.9415  -13.1162   22.4388 H   0  0  0  0  0  0  0  0  0  0  0  0
    6.7598  -14.8486   22.6315 H   0  0  0  0  0  0  0  0  0  0  0  0
    6.9625  -13.8315   24.0549 H   0  0  0  0  0  0  0  0  0  0  0  0
    3.3978  -12.4003   23.6741 H   0  0  0  0  0  0  0  0  0  0  0  0
    4.1030  -12.2937   26.6842 H   0  0  0  0  0  0  0  0  0  0  0  0
    2.6547  -12.2893   25.9372 H   0  0  0  0  0  0  0  0  0  0  0  0
    3.4422  -14.9424   27.3630 H   0  0  0  0  0  0  0  0  0  0  0  0
    1.8527  -14.9847   28.8732 H   0  0  0  0  0  0  0  0  0  0  0  0
    0.7814  -15.4478   27.5857 H   0  0  0  0  0  0  0  0  0  0  0  0
   -0.6037  -12.4701   30.0094 H   0  0  0  0  0  0  0  0  0  0  0  0
   -2.2505  -12.9656   31.8435 H   0  0  0  0  0  0  0  0  0  0  0  0
    0.3146  -17.1000   30.2252 H   0  0  0  0  0  0  0  0  0  0  0  0
   -3.5489  -17.2040   34.1139 H   0  0  0  0  0  0  0  0  0  0  0  0
   -4.2259  -13.7344   33.6247 H   0  0  0  0  0  0  0  0  0  0  0  0
   -4.8785  -15.2290   34.3172 H   0  0  0  0  0  0  0  0  0  0  0  0
   -5.3861  -14.7632   32.6783 H   0  0  0  0  0  0  0  0  0  0  0  0
    6.9437  -11.3384   25.0551 H   0  0  0  0  0  0  0  0  0  0  0  0
    8.2312   -9.6083   23.9713 H   0  0  0  0  0  0  0  0  0  0  0  0
    7.4589   -8.5498   21.8738 H   0  0  0  0  0  0  0  0  0  0  0  0
    5.2645   -9.2207   20.9002 H   0  0  0  0  0  0  0  0  0  0  0  0
    3.9143  -10.9387   21.9834 H   0  0  0  0  0  0  0  0  0  0  0  0
  1  2  1  0
  2  3  1  0
  2  4  1  0
  4  5  1  0
  5  6  1  0
  6  7  1  0
  7  8  1  0
  8  9  2  0
  9 10  1  0
 10 11  2  0
 11 12  1  0
 12 13  2  0
 12 14  1  0
 14 15  2  0
 15 16  1  0
 16 17  1  0
  4 18  1  0
 18 19  2  0
 19 20  1  0
 20 21  2  0
 21 22  1  0
 22 23  2  0
 13  8  1  0
 23 18  1  0
 16 11  1  0
  1 24  1  0
  1 25  1  0
  1 26  1  0
  2 27  1  0
  3 28  1  0
  3 29  1  0
  3 30  1  0
  4 31  1  0
  5 32  1  0
  5 33  1  0
  6 34  1  0
  7 35  1  0
  7 36  1  0
  9 37  1  0
 10 38  1  0
 13 39  1  0
 15 40  1  0
 17 41  1  0
 17 42  1  0
 17 43  1  0
 19 44  1  0
 20 45  1  0
 21 46  1  0
 22 47  1  0
 23 48  1  0
M  END
>  <Energy>  (1054) 
568.50486799916155

>  <compound_id>  (1054) 
77334

>  <target_id>  (1054) 
1

>  <reference_id>  (1054) 
52

>  <inspiration_ids>  (1054) 
[52, 20]

>  <energy_score>  (1054) 
470.27034201184824

>  <distance_score>  (1054) 
13.08134877603387

>  <path>  (1054) 
/opt/xchem-fragalysis-2/maxwin/BulkDock/SCRATCH/511020/C77334-P52/C77334-P52.minimised.mol

>  <scratch_subdir>  (1054) 
/opt/xchem-fragalysis-2/maxwin/BulkDock/SCRATCH/511020/C77334-P52

>  <fragmenstein_runtime>  (1054) 
21.803527355194092

>  <fragmenstein_outcome>  (1054) 
too moved

>  <fragmenstein_mode>  (1054) 
expansion

>  <fragmenstein_error>  (1054) 


$$$$
C77334-P20
     RDKit          3D

 48 50  0  0  0  0  0  0  0  0999 V2000
    7.3066  -13.9638   25.3445 C   0  0  0  0  0  0  0  0  0  0  0  0
    5.9509  -13.2086   25.5870 C   0  0  0  0  0  0  0  0  0  0  0  0
    6.0670  -11.9738   24.6401 C   0  0  0  0  0  0  0  0  0  0  0  0
    4.4765  -14.3403   25.5437 C   0  0  0  0  0  0  0  0  0  0  0  0
    3.5784  -14.9552   27.2843 C   0  0  0  0  0  0  0  0  0  0  0  0
    2.5401  -16.4730   28.0395 N   0  0  0  0  0  0  0  0  0  0  0  0
    1.2651  -17.0740   29.4378 C   0  0  0  0  0  0  0  0  0  0  0  0
    0.5924  -18.6942   30.4049 C   0  0  0  0  0  0  0  0  0  0  0  0
    1.1390  -20.0701   30.7472 C   0  0  0  0  0  0  0  0  0  0  0  0
    0.6882  -21.4800   31.0048 C   0  0  0  0  0  0  0  0  0  0  0  0
   -0.6296  -21.5902   31.3138 C   0  0  0  0  0  0  0  0  0  0  0  0
   -1.2304  -20.3964   31.5773 C   0  0  0  0  0  0  0  0  0  0  0  0
   -0.5225  -19.0589   31.0895 C   0  0  0  0  0  0  0  0  0  0  0  0
   -2.4884  -20.5891   32.1183 N   0  0  0  0  0  0  0  0  0  0  0  0
   -2.6715  -21.8855   32.0813 C   0  0  0  0  0  0  0  0  0  0  0  0
   -1.5755  -22.5307   31.5799 N   0  0  0  0  0  0  0  0  0  0  0  0
   -1.5281  -23.9376   31.3002 C   0  0  0  0  0  0  0  0  0  0  0  0
    4.1804  -14.0897   23.9197 C   0  0  0  0  0  0  0  0  0  0  0  0
    5.1773  -14.5090   22.9853 C   0  0  0  0  0  0  0  0  0  0  0  0
    5.2484  -14.0260   21.6611 C   0  0  0  0  0  0  0  0  0  0  0  0
    4.2860  -13.1466   21.1914 C   0  0  0  0  0  0  0  0  0  0  0  0
    3.2425  -12.7931   22.0394 C   0  0  0  0  0  0  0  0  0  0  0  0
    3.2039  -13.2452   23.3732 C   0  0  0  0  0  0  0  0  0  0  0  0
    7.2516  -15.0461   25.4771 H   0  0  0  0  0  0  0  0  0  0  0  0
    8.0662  -13.5741   26.0319 H   0  0  0  0  0  0  0  0  0  0  0  0
    7.6962  -13.8149   24.3315 H   0  0  0  0  0  0  0  0  0  0  0  0
    5.9700  -12.8125   26.6126 H   0  0  0  0  0  0  0  0  0  0  0  0
    5.1625  -11.3945   24.4777 H   0  0  0  0  0  0  0  0  0  0  0  0
    6.8065  -11.2804   25.0612 H   0  0  0  0  0  0  0  0  0  0  0  0
    6.4397  -12.2341   23.6450 H   0  0  0  0  0  0  0  0  0  0  0  0
    5.0135  -15.2354   25.2972 H   0  0  0  0  0  0  0  0  0  0  0  0
    2.7541  -14.2205   27.2522 H   0  0  0  0  0  0  0  0  0  0  0  0
    4.2032  -14.6313   28.0744 H   0  0  0  0  0  0  0  0  0  0  0  0
    3.3233  -17.1044   28.2710 H   0  0  0  0  0  0  0  0  0  0  0  0
    0.7560  -17.2494   28.4931 H   0  0  0  0  0  0  0  0  0  0  0  0
    0.8925  -16.2548   30.0330 H   0  0  0  0  0  0  0  0  0  0  0  0
    2.1342  -20.0160   31.1672 H   0  0  0  0  0  0  0  0  0  0  0  0
    1.4017  -22.2894   31.0950 H   0  0  0  0  0  0  0  0  0  0  0  0
   -1.2607  -18.3422   31.4003 H   0  0  0  0  0  0  0  0  0  0  0  0
   -3.5636  -22.4007   32.3882 H   0  0  0  0  0  0  0  0  0  0  0  0
   -2.2447  -24.1564   30.5060 H   0  0  0  0  0  0  0  0  0  0  0  0
   -1.7648  -24.4843   32.2157 H   0  0  0  0  0  0  0  0  0  0  0  0
   -0.5233  -24.2110   30.9678 H   0  0  0  0  0  0  0  0  0  0  0  0
    5.9666  -15.1862   23.3078 H   0  0  0  0  0  0  0  0  0  0  0  0
    6.0592  -14.3485   21.0135 H   0  0  0  0  0  0  0  0  0  0  0  0
    4.3248  -12.7717   20.1738 H   0  0  0  0  0  0  0  0  0  0  0  0
    2.4562  -12.1317   21.6831 H   0  0  0  0  0  0  0  0  0  0  0  0
    2.3777  -12.8902   23.9755 H   0  0  0  0  0  0  0  0  0  0  0  0
  1  2  1  0
  2  3  1  0
  2  4  1  0
  4  5  1  0
  5  6  1  0
  6  7  1  0
  7  8  1  0
  8  9  2  0
  9 10  1  0
 10 11  2  0
 11 12  1  0
 12 13  2  0
 12 14  1  0
 14 15  2  0
 15 16  1  0
 16 17  1  0
  4 18  1  0
 18 19  2  0
 19 20  1  0
 20 21  2  0
 21 22  1  0
 22 23  2  0
 13  8  1  0
 23 18  1  0
 16 11  1  0
  1 24  1  0
  1 25  1  0
  1 26  1  0
  2 27  1  0
  3 28  1  0
  3 29  1  0
  3 30  1  0
  4 31  1  0
  5 32  1  0
  5 33  1  0
  6 34  1  0
  7 35  1  0
  7 36  1  0
  9 37  1  0
 10 38  1  0
 13 39  1  0
 15 40  1  0
 17 41  1  0
 17 42  1  0
 17 43  1  0
 19 44  1  0
 20 45  1  0
 21 46  1  0
 22 47  1  0
 23 48  1  0
M  END
>  <Energy>  (1055) 
609.13290798169317

>  <compound_id>  (1055) 
77334

>  <target_id>  (1055) 
1

>  <reference_id>  (1055) 
20

>  <inspiration_ids>  (1055) 
[52, 20]

>  <energy_score>  (1055) 
510.8983819943697

>  <distance_score>  (1055) 
13.262944714481884

>  <path>  (1055) 
/opt/xchem-fragalysis-2/maxwin/BulkDock/SCRATCH/511020/C77334-P20/C77334-P20.minimised.mol

>  <scratch_subdir>  (1055) 
/opt/xchem-fragalysis-2/maxwin/BulkDock/SCRATCH/511020/C77334-P20

>  <fragmenstein_runtime>  (1055) 
23.127259254455566

>  <fragmenstein_outcome>  (1055) 
too moved

>  <fragmenstein_mode>  (1055) 
expansion

>  <fragmenstein_error>  (1055) 


$$$$
C77335-P52
     RDKit          3D

 43 45  0  0  0  0  0  0  0  0999 V2000
   -0.8654  -21.8486   23.6088 C   0  0  0  0  0  0  0  0  0  0  0  0
   -2.0815  -20.9540   23.7885 C   0  0  0  0  0  0  0  0  0  0  0  0
   -2.0970  -19.2601   24.2108 C   0  0  0  0  0  0  0  0  0  0  0  0
   -1.4926  -19.0612   22.4986 C   0  0  0  0  0  0  0  0  0  0  0  0
   -0.1865  -18.8910   22.0957 C   0  0  0  0  0  0  0  0  0  0  0  0
    0.2444  -18.7115   20.7493 C   0  0  0  0  0  0  0  0  0  0  0  0
   -0.6600  -18.7501   19.7128 C   0  0  0  0  0  0  0  0  0  0  0  0
   -1.9608  -19.1056   20.0287 C   0  0  0  0  0  0  0  0  0  0  0  0
   -2.3429  -19.2979   21.3756 C   0  0  0  0  0  0  0  0  0  0  0  0
   -1.7410  -18.2992   26.1662 C   0  0  0  0  0  0  0  0  0  0  0  0
   -1.1538  -16.8874   26.0446 N   0  0  0  0  0  0  0  0  0  0  0  0
   -0.9707  -19.2279   27.9063 C   0  0  0  0  0  0  0  0  0  0  0  0
    0.0203  -19.8810   27.7851 O   0  0  0  0  0  0  0  0  0  0  0  0
   -1.8173  -19.0654   29.0478 N   0  0  0  0  0  0  0  0  0  0  0  0
   -1.8220  -19.7126   30.3415 C   0  0  0  0  0  0  0  0  0  0  0  0
   -1.5410  -21.3394   30.3654 C   0  0  0  0  0  0  0  0  0  0  0  0
   -1.4858  -22.1558   31.5057 C   0  0  0  0  0  0  0  0  0  0  0  0
   -1.8451  -21.6157   32.7395 C   0  0  0  0  0  0  0  0  0  0  0  0
   -2.3957  -20.3252   32.7387 C   0  0  0  0  0  0  0  0  0  0  0  0
   -2.7091  -19.5264   33.8155 N   0  0  0  0  0  0  0  0  0  0  0  0
   -3.4609  -18.5133   33.3411 C   0  0  0  0  0  0  0  0  0  0  0  0
   -3.4064  -18.5111   32.0373 N   0  0  0  0  0  0  0  0  0  0  0  0
   -2.5622  -19.4794   31.6129 C   0  0  0  0  0  0  0  0  0  0  0  0
   -0.1967  -21.9164   24.4626 H   0  0  0  0  0  0  0  0  0  0  0  0
   -0.3176  -21.5769   22.7087 H   0  0  0  0  0  0  0  0  0  0  0  0
   -1.2133  -22.8747   23.4320 H   0  0  0  0  0  0  0  0  0  0  0  0
   -2.5968  -21.0607   22.8260 H   0  0  0  0  0  0  0  0  0  0  0  0
   -2.8597  -21.5133   24.3096 H   0  0  0  0  0  0  0  0  0  0  0  0
   -3.2404  -19.2617   24.0732 H   0  0  0  0  0  0  0  0  0  0  0  0
    0.5472  -18.8877   22.8633 H   0  0  0  0  0  0  0  0  0  0  0  0
    1.3006  -18.5516   20.5495 H   0  0  0  0  0  0  0  0  0  0  0  0
   -0.3475  -18.5981   18.6868 H   0  0  0  0  0  0  0  0  0  0  0  0
   -2.6928  -19.2424   19.2375 H   0  0  0  0  0  0  0  0  0  0  0  0
   -3.3751  -19.6152   21.5388 H   0  0  0  0  0  0  0  0  0  0  0  0
   -2.6106  -17.8132   26.3977 H   0  0  0  0  0  0  0  0  0  0  0  0
   -0.9238  -16.4459   26.9183 H   0  0  0  0  0  0  0  0  0  0  0  0
   -0.2740  -17.0672   25.5733 H   0  0  0  0  0  0  0  0  0  0  0  0
   -2.5575  -18.5491   28.7995 H   0  0  0  0  0  0  0  0  0  0  0  0
   -1.1532  -21.8132   29.4582 H   0  0  0  0  0  0  0  0  0  0  0  0
   -1.0571  -23.1517   31.4312 H   0  0  0  0  0  0  0  0  0  0  0  0
   -1.7068  -22.1759   33.6591 H   0  0  0  0  0  0  0  0  0  0  0  0
   -2.5749  -19.7713   34.7857 H   0  0  0  0  0  0  0  0  0  0  0  0
   -4.0060  -17.8197   33.9670 H   0  0  0  0  0  0  0  0  0  0  0  0
  1  2  1  0
  2  3  1  0
  3  4  1  0
  4  5  2  0
  5  6  1  0
  6  7  2  0
  7  8  1  0
  8  9  2  0
  3 10  1  0
 10 11  1  0
 10 12  1  0
 12 13  2  0
 12 14  1  0
 14 15  1  0
 15 16  2  0
 16 17  1  0
 17 18  2  0
 18 19  1  0
 19 20  1  0
 20 21  1  0
 21 22  2  0
 22 23  1  0
  9  4  1  0
 23 15  1  0
 23 19  2  0
  1 24  1  0
  1 25  1  0
  1 26  1  0
  2 27  1  0
  2 28  1  0
  3 29  1  0
  5 30  1  0
  6 31  1  0
  7 32  1  0
  8 33  1  0
  9 34  1  0
 10 35  1  0
 11 36  1  0
 11 37  1  0
 14 38  1  0
 16 39  1  0
 17 40  1  0
 18 41  1  0
 20 42  1  0
 21 43  1  0
M  END
>  <Energy>  (1056) 
464.91651262100436

>  <compound_id>  (1056) 
77335

>  <target_id>  (1056) 
1

>  <reference_id>  (1056) 
52

>  <inspiration_ids>  (1056) 
[52, 20]

>  <energy_score>  (1056) 
313.70738113383345

>  <distance_score>  (1056) 
17.177354233750624

>  <path>  (1056) 
/opt/xchem-fragalysis-2/maxwin/BulkDock/SCRATCH/511020/C77335-P52/C77335-P52.minimised.mol

>  <scratch_subdir>  (1056) 
/opt/xchem-fragalysis-2/maxwin/BulkDock/SCRATCH/511020/C77335-P52

>  <fragmenstein_runtime>  (1056) 
21.22114086151123

>  <fragmenstein_outcome>  (1056) 
too moved

>  <fragmenstein_mode>  (1056) 
expansion

>  <fragmenstein_error>  (1056) 


$$$$
C77335-P20
     RDKit          3D

 43 45  0  0  0  0  0  0  0  0999 V2000
    8.8528   -9.1066   26.1236 C   0  0  0  0  0  0  0  0  0  0  0  0
    8.2824   -7.7099   25.9004 C   0  0  0  0  0  0  0  0  0  0  0  0
    6.7126   -7.6752   25.8209 C   0  0  0  0  0  0  0  0  0  0  0  0
    6.4028   -6.6121   24.7357 C   0  0  0  0  0  0  0  0  0  0  0  0
    6.8519   -5.2807   24.8243 C   0  0  0  0  0  0  0  0  0  0  0  0
    6.7076   -4.3912   23.7466 C   0  0  0  0  0  0  0  0  0  0  0  0
    6.1057   -4.8115   22.5635 C   0  0  0  0  0  0  0  0  0  0  0  0
    5.6398   -6.1199   22.4636 C   0  0  0  0  0  0  0  0  0  0  0  0
    5.7993   -7.0120   23.5301 C   0  0  0  0  0  0  0  0  0  0  0  0
    5.9319   -7.5749   27.2687 C   0  0  0  0  0  0  0  0  0  0  0  0
    6.6172   -8.2837   28.3799 N   0  0  0  0  0  0  0  0  0  0  0  0
    4.3869   -8.1063   27.2856 C   0  0  0  0  0  0  0  0  0  0  0  0
    3.7743   -8.0108   26.2528 O   0  0  0  0  0  0  0  0  0  0  0  0
    3.9581   -8.6090   28.6286 N   0  0  0  0  0  0  0  0  0  0  0  0
    2.6618   -9.0384   29.1089 C   0  0  0  0  0  0  0  0  0  0  0  0
    1.5486   -8.9255   28.2698 C   0  0  0  0  0  0  0  0  0  0  0  0
    0.2479   -9.2695   28.6583 C   0  0  0  0  0  0  0  0  0  0  0  0
   -0.0592   -9.7246   29.9285 C   0  0  0  0  0  0  0  0  0  0  0  0
    1.0254   -9.9189   30.7549 C   0  0  0  0  0  0  0  0  0  0  0  0
    1.0706  -10.4596   32.0138 N   0  0  0  0  0  0  0  0  0  0  0  0
    2.3655  -10.4138   32.4173 C   0  0  0  0  0  0  0  0  0  0  0  0
    3.1499   -9.8940   31.4923 N   0  0  0  0  0  0  0  0  0  0  0  0
    2.3479   -9.5916   30.4056 C   0  0  0  0  0  0  0  0  0  0  0  0
    8.5786   -9.5257   27.0924 H   0  0  0  0  0  0  0  0  0  0  0  0
    8.5131   -9.7951   25.3431 H   0  0  0  0  0  0  0  0  0  0  0  0
    9.9466   -9.0706   26.0827 H   0  0  0  0  0  0  0  0  0  0  0  0
    8.6376   -7.0269   26.6809 H   0  0  0  0  0  0  0  0  0  0  0  0
    8.7234   -7.3620   24.9592 H   0  0  0  0  0  0  0  0  0  0  0  0
    6.3950   -8.6432   25.4068 H   0  0  0  0  0  0  0  0  0  0  0  0
    7.3398   -4.9299   25.7311 H   0  0  0  0  0  0  0  0  0  0  0  0
    7.0615   -3.3685   23.8393 H   0  0  0  0  0  0  0  0  0  0  0  0
    5.9892   -4.1252   21.7291 H   0  0  0  0  0  0  0  0  0  0  0  0
    5.1660   -6.4575   21.5447 H   0  0  0  0  0  0  0  0  0  0  0  0
    5.4444   -8.0344   23.4095 H   0  0  0  0  0  0  0  0  0  0  0  0
    5.8730   -6.5137   27.5402 H   0  0  0  0  0  0  0  0  0  0  0  0
    6.7274   -9.2659   28.1211 H   0  0  0  0  0  0  0  0  0  0  0  0
    7.5598   -7.9105   28.4869 H   0  0  0  0  0  0  0  0  0  0  0  0
    4.7643   -8.6240   29.2540 H   0  0  0  0  0  0  0  0  0  0  0  0
    1.6736   -8.5099   27.2725 H   0  0  0  0  0  0  0  0  0  0  0  0
   -0.5210   -9.1591   27.9129 H   0  0  0  0  0  0  0  0  0  0  0  0
   -1.0567  -10.0023   30.2302 H   0  0  0  0  0  0  0  0  0  0  0  0
    0.2875  -10.8289   32.5342 H   0  0  0  0  0  0  0  0  0  0  0  0
    2.6896  -10.7705   33.3859 H   0  0  0  0  0  0  0  0  0  0  0  0
  1  2  1  0
  2  3  1  0
  3  4  1  0
  4  5  2  0
  5  6  1  0
  6  7  2  0
  7  8  1  0
  8  9  2  0
  3 10  1  0
 10 11  1  0
 10 12  1  0
 12 13  2  0
 12 14  1  0
 14 15  1  0
 15 16  2  0
 16 17  1  0
 17 18  2  0
 18 19  1  0
 19 20  1  0
 20 21  1  0
 21 22  2  0
 22 23  1  0
  9  4  1  0
 23 15  1  0
 23 19  2  0
  1 24  1  0
  1 25  1  0
  1 26  1  0
  2 27  1  0
  2 28  1  0
  3 29  1  0
  5 30  1  0
  6 31  1  0
  7 32  1  0
  8 33  1  0
  9 34  1  0
 10 35  1  0
 11 36  1  0
 11 37  1  0
 14 38  1  0
 16 39  1  0
 17 40  1  0
 18 41  1  0
 20 42  1  0
 21 43  1  0
M  END
>  <Energy>  (1057) 
112.432993358339

>  <compound_id>  (1057) 
77335

>  <target_id>  (1057) 
1

>  <reference_id>  (1057) 
20

>  <inspiration_ids>  (1057) 
[52, 20]

>  <energy_score>  (1057) 
-38.776138128832315

>  <distance_score>  (1057) 
15.782688272128581

>  <path>  (1057) 
/opt/xchem-fragalysis-2/maxwin/BulkDock/SCRATCH/511020/C77335-P20/C77335-P20.minimised.mol

>  <scratch_subdir>  (1057) 
/opt/xchem-fragalysis-2/maxwin/BulkDock/SCRATCH/511020/C77335-P20

>  <fragmenstein_runtime>  (1057) 
37.181312561035156

>  <fragmenstein_outcome>  (1057) 
too moved

>  <fragmenstein_mode>  (1057) 
expansion

>  <fragmenstein_error>  (1057) 


$$$$
C77336-P52
     RDKit          3D

 39 41  0  0  0  0  0  0  0  0999 V2000
    7.7162  -13.4184   29.3653 C   0  0  0  0  0  0  0  0  0  0  0  0
    6.4360  -14.2308   29.3872 C   0  0  0  0  0  0  0  0  0  0  0  0
    5.6380  -13.8250   28.2804 O   0  0  0  0  0  0  0  0  0  0  0  0
    4.5467  -14.7786   28.0087 C   0  0  0  0  0  0  0  0  0  0  0  0
    3.3839  -15.1831   29.4912 C   0  0  0  0  0  0  0  0  0  0  0  0
    3.9808  -15.6467   30.4571 O   0  0  0  0  0  0  0  0  0  0  0  0
    1.6173  -14.7529   29.2911 N   0  0  0  0  0  0  0  0  0  0  0  0
    0.3574  -14.9655   30.2854 C   0  0  0  0  0  0  0  0  0  0  0  0
   -0.9171  -14.0031   30.7650 N   0  0  0  0  0  0  0  0  0  0  0  0
   -2.2674  -15.1808   31.5111 C   0  0  0  0  0  0  0  0  0  0  0  0
   -3.3634  -15.0708   32.5965 C   0  0  0  0  0  0  0  0  0  0  0  0
   -3.6903  -16.1931   33.4500 C   0  0  0  0  0  0  0  0  0  0  0  0
   -3.1352  -17.4900   33.2677 C   0  0  0  0  0  0  0  0  0  0  0  0
   -2.2193  -17.7586   32.2095 C   0  0  0  0  0  0  0  0  0  0  0  0
   -1.7305  -16.5656   31.4049 C   0  0  0  0  0  0  0  0  0  0  0  0
   -0.2333  -16.4730   30.5349 N   0  0  0  0  0  0  0  0  0  0  0  0
    5.2302  -15.4767   26.7951 C   0  0  0  0  0  0  0  0  0  0  0  0
    5.5065  -14.5977   25.6651 C   0  0  0  0  0  0  0  0  0  0  0  0
    6.2727  -14.9682   24.5608 C   0  0  0  0  0  0  0  0  0  0  0  0
    6.7952  -16.2483   24.5448 C   0  0  0  0  0  0  0  0  0  0  0  0
    6.5524  -17.1221   25.6252 C   0  0  0  0  0  0  0  0  0  0  0  0
    5.7942  -16.7353   26.7490 C   0  0  0  0  0  0  0  0  0  0  0  0
    8.2633  -13.5879   28.4320 H   0  0  0  0  0  0  0  0  0  0  0  0
    8.3618  -13.6846   30.2068 H   0  0  0  0  0  0  0  0  0  0  0  0
    7.4942  -12.3471   29.4146 H   0  0  0  0  0  0  0  0  0  0  0  0
    5.8992  -14.0265   30.3180 H   0  0  0  0  0  0  0  0  0  0  0  0
    6.6740  -15.2981   29.3296 H   0  0  0  0  0  0  0  0  0  0  0  0
    3.8314  -14.3384   27.2935 H   0  0  0  0  0  0  0  0  0  0  0  0
    1.4206  -14.4694   28.3403 H   0  0  0  0  0  0  0  0  0  0  0  0
   -3.7214  -14.0843   32.8793 H   0  0  0  0  0  0  0  0  0  0  0  0
   -4.3883  -16.0291   34.2705 H   0  0  0  0  0  0  0  0  0  0  0  0
   -3.4288  -18.2950   33.9380 H   0  0  0  0  0  0  0  0  0  0  0  0
   -1.7404  -18.7247   32.0854 H   0  0  0  0  0  0  0  0  0  0  0  0
    0.3177  -17.3000   30.3810 H   0  0  0  0  0  0  0  0  0  0  0  0
    5.1397  -13.5699   25.7015 H   0  0  0  0  0  0  0  0  0  0  0  0
    6.4608  -14.2715   23.7517 H   0  0  0  0  0  0  0  0  0  0  0  0
    7.3991  -16.5844   23.7063 H   0  0  0  0  0  0  0  0  0  0  0  0
    6.9862  -18.1204   25.6011 H   0  0  0  0  0  0  0  0  0  0  0  0
    5.6844  -17.4226   27.5830 H   0  0  0  0  0  0  0  0  0  0  0  0
  1  2  1  0
  2  3  1  0
  3  4  1  0
  4  5  1  0
  5  6  2  0
  5  7  1  0
  7  8  1  0
  8  9  2  0
  9 10  1  0
 10 11  2  0
 11 12  1  0
 12 13  2  0
 13 14  1  0
 14 15  2  0
 15 16  1  0
  4 17  1  0
 17 18  2  0
 18 19  1  0
 19 20  2  0
 20 21  1  0
 21 22  2  0
 16  8  1  0
 22 17  1  0
 15 10  1  0
  1 23  1  0
  1 24  1  0
  1 25  1  0
  2 26  1  0
  2 27  1  0
  4 28  1  0
  7 29  1  0
 11 30  1  0
 12 31  1  0
 13 32  1  0
 14 33  1  0
 16 34  1  0
 18 35  1  0
 19 36  1  0
 20 37  1  0
 21 38  1  0
 22 39  1  0
M  END
>  <Energy>  (1058) 
422.85935722029103

>  <compound_id>  (1058) 
77336

>  <target_id>  (1058) 
1

>  <reference_id>  (1058) 
52

>  <inspiration_ids>  (1058) 
[52, 20]

>  <energy_score>  (1058) 
346.26863581513703

>  <distance_score>  (1058) 
15.109642201517536

>  <path>  (1058) 
/opt/xchem-fragalysis-2/maxwin/BulkDock/SCRATCH/511020/C77336-P52/C77336-P52.minimised.mol

>  <scratch_subdir>  (1058) 
/opt/xchem-fragalysis-2/maxwin/BulkDock/SCRATCH/511020/C77336-P52

>  <fragmenstein_runtime>  (1058) 
21.97647976875305

>  <fragmenstein_outcome>  (1058) 
too moved

>  <fragmenstein_mode>  (1058) 
expansion

>  <fragmenstein_error>  (1058) 


$$$$
C77336-P20
     RDKit          3D

 39 41  0  0  0  0  0  0  0  0999 V2000
   -2.4770  -12.6957   18.8039 C   0  0  0  0  0  0  0  0  0  0  0  0
   -2.2631  -11.3458   19.4607 C   0  0  0  0  0  0  0  0  0  0  0  0
   -3.1945  -10.4334   18.8901 O   0  0  0  0  0  0  0  0  0  0  0  0
   -3.5042   -9.3026   19.7145 C   0  0  0  0  0  0  0  0  0  0  0  0
   -4.4370   -9.6045   21.0405 C   0  0  0  0  0  0  0  0  0  0  0  0
   -4.1404   -9.0764   22.0834 O   0  0  0  0  0  0  0  0  0  0  0  0
   -5.5520  -10.5656   20.7093 N   0  0  0  0  0  0  0  0  0  0  0  0
   -6.5180  -11.2007   21.5506 C   0  0  0  0  0  0  0  0  0  0  0  0
   -6.8735  -10.9676   22.8092 N   0  0  0  0  0  0  0  0  0  0  0  0
   -7.4847  -12.1196   23.3166 C   0  0  0  0  0  0  0  0  0  0  0  0
   -7.9151  -12.4571   24.6232 C   0  0  0  0  0  0  0  0  0  0  0  0
   -8.4593  -13.7311   24.8793 C   0  0  0  0  0  0  0  0  0  0  0  0
   -8.5827  -14.6616   23.8472 C   0  0  0  0  0  0  0  0  0  0  0  0
   -8.1741  -14.3436   22.5377 C   0  0  0  0  0  0  0  0  0  0  0  0
   -7.6321  -13.0602   22.3087 C   0  0  0  0  0  0  0  0  0  0  0  0
   -7.1348  -12.4057   21.1840 N   0  0  0  0  0  0  0  0  0  0  0  0
   -2.1954   -8.4239   19.7660 C   0  0  0  0  0  0  0  0  0  0  0  0
   -1.2312   -8.4624   20.7865 C   0  0  0  0  0  0  0  0  0  0  0  0
    0.0100   -7.7968   20.6597 C   0  0  0  0  0  0  0  0  0  0  0  0
    0.3178   -7.0706   19.5119 C   0  0  0  0  0  0  0  0  0  0  0  0
   -0.6202   -7.0103   18.4878 C   0  0  0  0  0  0  0  0  0  0  0  0
   -1.8448   -7.6840   18.6088 C   0  0  0  0  0  0  0  0  0  0  0  0
   -1.8030  -13.4480   19.2206 H   0  0  0  0  0  0  0  0  0  0  0  0
   -3.5097  -13.0322   18.9432 H   0  0  0  0  0  0  0  0  0  0  0  0
   -2.3079  -12.6295   17.7240 H   0  0  0  0  0  0  0  0  0  0  0  0
   -1.2437  -11.0013   19.2606 H   0  0  0  0  0  0  0  0  0  0  0  0
   -2.4066  -11.4291   20.5394 H   0  0  0  0  0  0  0  0  0  0  0  0
   -4.2037   -8.7010   19.1141 H   0  0  0  0  0  0  0  0  0  0  0  0
   -5.4534  -10.8724   19.7507 H   0  0  0  0  0  0  0  0  0  0  0  0
   -7.7955  -11.7313   25.4224 H   0  0  0  0  0  0  0  0  0  0  0  0
   -8.7771  -13.9793   25.8888 H   0  0  0  0  0  0  0  0  0  0  0  0
   -9.0105  -15.6389   24.0548 H   0  0  0  0  0  0  0  0  0  0  0  0
   -8.2854  -15.0599   21.7306 H   0  0  0  0  0  0  0  0  0  0  0  0
   -7.0526  -12.8173   20.2707 H   0  0  0  0  0  0  0  0  0  0  0  0
   -1.4192   -9.0394   21.6891 H   0  0  0  0  0  0  0  0  0  0  0  0
    0.7350   -7.8703   21.4685 H   0  0  0  0  0  0  0  0  0  0  0  0
    1.2744   -6.5657   19.4191 H   0  0  0  0  0  0  0  0  0  0  0  0
   -0.3952   -6.4578   17.5791 H   0  0  0  0  0  0  0  0  0  0  0  0
   -2.5324   -7.6553   17.7643 H   0  0  0  0  0  0  0  0  0  0  0  0
  1  2  1  0
  2  3  1  0
  3  4  1  0
  4  5  1  0
  5  6  2  0
  5  7  1  0
  7  8  1  0
  8  9  2  0
  9 10  1  0
 10 11  2  0
 11 12  1  0
 12 13  2  0
 13 14  1  0
 14 15  2  0
 15 16  1  0
  4 17  1  0
 17 18  2  0
 18 19  1  0
 19 20  2  0
 20 21  1  0
 21 22  2  0
 16  8  1  0
 22 17  1  0
 15 10  1  0
  1 23  1  0
  1 24  1  0
  1 25  1  0
  2 26  1  0
  2 27  1  0
  4 28  1  0
  7 29  1  0
 11 30  1  0
 12 31  1  0
 13 32  1  0
 14 33  1  0
 16 34  1  0
 18 35  1  0
 19 36  1  0
 20 37  1  0
 21 38  1  0
 22 39  1  0
M  END
>  <Energy>  (1059) 
83.111563420418847

>  <compound_id>  (1059) 
77336

>  <target_id>  (1059) 
1

>  <reference_id>  (1059) 
20

>  <inspiration_ids>  (1059) 
[52, 20]

>  <energy_score>  (1059) 
6.520842015263611

>  <distance_score>  (1059) 
15.760230616347835

>  <path>  (1059) 
/opt/xchem-fragalysis-2/maxwin/BulkDock/SCRATCH/511020/C77336-P20/C77336-P20.minimised.mol

>  <scratch_subdir>  (1059) 
/opt/xchem-fragalysis-2/maxwin/BulkDock/SCRATCH/511020/C77336-P20

>  <fragmenstein_runtime>  (1059) 
34.44375514984131

>  <fragmenstein_outcome>  (1059) 
too moved

>  <fragmenstein_mode>  (1059) 
expansion

>  <fragmenstein_error>  (1059) 


$$$$
C77337-P52
     RDKit          3D

 45 47  0  0  0  0  0  0  0  0999 V2000
   -1.2259  -17.8253   18.7287 C   0  0  0  0  0  0  0  0  0  0  0  0
   -0.3527  -16.5866   18.6709 C   0  0  0  0  0  0  0  0  0  0  0  0
   -0.9642  -15.4682   19.3077 O   0  0  0  0  0  0  0  0  0  0  0  0
   -1.9223  -14.7560   18.5224 C   0  0  0  0  0  0  0  0  0  0  0  0
   -3.5795  -14.7710   18.9996 C   0  0  0  0  0  0  0  0  0  0  0  0
   -4.2241  -13.8001   18.6817 O   0  0  0  0  0  0  0  0  0  0  0  0
   -3.9848  -16.0080   19.7474 N   0  0  0  0  0  0  0  0  0  0  0  0
   -5.2172  -16.3536   20.3809 C   0  0  0  0  0  0  0  0  0  0  0  0
   -6.0416  -15.4678   20.9368 N   0  0  0  0  0  0  0  0  0  0  0  0
   -7.1032  -16.1417   21.5162 C   0  0  0  0  0  0  0  0  0  0  0  0
   -8.2236  -15.6595   22.2231 C   0  0  0  0  0  0  0  0  0  0  0  0
   -9.2317  -16.5497   22.6201 C   0  0  0  0  0  0  0  0  0  0  0  0
   -9.1386  -17.8971   22.2909 C   0  0  0  0  0  0  0  0  0  0  0  0
   -7.9991  -18.4047   21.6576 C   0  0  0  0  0  0  0  0  0  0  0  0
   -6.9775  -17.5015   21.3116 C   0  0  0  0  0  0  0  0  0  0  0  0
   -5.7134  -17.6408   20.7400 N   0  0  0  0  0  0  0  0  0  0  0  0
   -5.1187  -18.9567   20.5506 C   0  0  0  0  0  0  0  0  0  0  0  0
   -5.1678  -19.9026   21.7687 C   0  0  0  0  0  0  0  0  0  0  0  0
   -1.1982  -13.3483   18.2230 C   0  0  0  0  0  0  0  0  0  0  0  0
   -1.7699  -12.0915   18.4514 C   0  0  0  0  0  0  0  0  0  0  0  0
   -1.0795  -10.8910   18.1796 C   0  0  0  0  0  0  0  0  0  0  0  0
    0.2208  -10.8975   17.6707 C   0  0  0  0  0  0  0  0  0  0  0  0
    0.8314  -12.1183   17.4293 C   0  0  0  0  0  0  0  0  0  0  0  0
    0.1313  -13.3155   17.6994 C   0  0  0  0  0  0  0  0  0  0  0  0
   -1.4961  -18.0596   19.7633 H   0  0  0  0  0  0  0  0  0  0  0  0
   -0.7012  -18.6856   18.3029 H   0  0  0  0  0  0  0  0  0  0  0  0
   -2.1546  -17.6800   18.1691 H   0  0  0  0  0  0  0  0  0  0  0  0
    0.5782  -16.7902   19.2095 H   0  0  0  0  0  0  0  0  0  0  0  0
   -0.0816  -16.3576   17.6351 H   0  0  0  0  0  0  0  0  0  0  0  0
   -1.9960  -15.2169   17.5247 H   0  0  0  0  0  0  0  0  0  0  0  0
   -3.1687  -16.5795   19.9091 H   0  0  0  0  0  0  0  0  0  0  0  0
   -8.3188  -14.5935   22.4059 H   0  0  0  0  0  0  0  0  0  0  0  0
  -10.1165  -16.1615   23.1178 H   0  0  0  0  0  0  0  0  0  0  0  0
   -9.9643  -18.5713   22.5037 H   0  0  0  0  0  0  0  0  0  0  0  0
   -7.9502  -19.4570   21.4021 H   0  0  0  0  0  0  0  0  0  0  0  0
   -5.6303  -19.4149   19.6965 H   0  0  0  0  0  0  0  0  0  0  0  0
   -4.0767  -18.7994   20.2537 H   0  0  0  0  0  0  0  0  0  0  0  0
   -4.3907  -20.6672   21.6634 H   0  0  0  0  0  0  0  0  0  0  0  0
   -5.0042  -19.3747   22.7118 H   0  0  0  0  0  0  0  0  0  0  0  0
   -6.1175  -20.4374   21.8336 H   0  0  0  0  0  0  0  0  0  0  0  0
   -2.7766  -12.0081   18.8501 H   0  0  0  0  0  0  0  0  0  0  0  0
   -1.5761   -9.9428   18.3718 H   0  0  0  0  0  0  0  0  0  0  0  0
    0.7400   -9.9666   17.4670 H   0  0  0  0  0  0  0  0  0  0  0  0
    1.8449  -12.1612   17.0414 H   0  0  0  0  0  0  0  0  0  0  0  0
    0.6539  -14.2489   17.5102 H   0  0  0  0  0  0  0  0  0  0  0  0
  1  2  1  0
  2  3  1  0
  3  4  1  0
  4  5  1  0
  5  6  2  0
  5  7  1  0
  7  8  1  0
  8  9  2  0
  9 10  1  0
 10 11  2  0
 11 12  1  0
 12 13  2  0
 13 14  1  0
 14 15  2  0
 15 16  1  0
 16 17  1  0
 17 18  1  0
  4 19  1  0
 19 20  2  0
 20 21  1  0
 21 22  2  0
 22 23  1  0
 23 24  2  0
 16  8  1  0
 24 19  1  0
 15 10  1  0
  1 25  1  0
  1 26  1  0
  1 27  1  0
  2 28  1  0
  2 29  1  0
  4 30  1  0
  7 31  1  0
 11 32  1  0
 12 33  1  0
 13 34  1  0
 14 35  1  0
 17 36  1  0
 17 37  1  0
 18 38  1  0
 18 39  1  0
 18 40  1  0
 20 41  1  0
 21 42  1  0
 22 43  1  0
 23 44  1  0
 24 45  1  0
M  END
>  <Energy>  (1060) 
107.48976156549732

>  <compound_id>  (1060) 
77337

>  <target_id>  (1060) 
1

>  <reference_id>  (1060) 
52

>  <inspiration_ids>  (1060) 
[52, 20]

>  <energy_score>  (1060) 
-2.6727031963342256

>  <distance_score>  (1060) 
15.09500372342518

>  <path>  (1060) 
/opt/xchem-fragalysis-2/maxwin/BulkDock/SCRATCH/511020/C77337-P52/C77337-P52.minimised.mol

>  <scratch_subdir>  (1060) 
/opt/xchem-fragalysis-2/maxwin/BulkDock/SCRATCH/511020/C77337-P52

>  <fragmenstein_runtime>  (1060) 
26.359949827194214

>  <fragmenstein_outcome>  (1060) 
too moved

>  <fragmenstein_mode>  (1060) 
expansion

>  <fragmenstein_error>  (1060) 


$$$$
C77337-P20
     RDKit          3D

 45 47  0  0  0  0  0  0  0  0999 V2000
    3.9475  -21.1883   25.1480 C   0  0  0  0  0  0  0  0  0  0  0  0
    4.3872  -19.9052   24.4658 C   0  0  0  0  0  0  0  0  0  0  0  0
    3.6954  -18.7684   24.9893 O   0  0  0  0  0  0  0  0  0  0  0  0
    4.2062  -18.3004   26.2368 C   0  0  0  0  0  0  0  0  0  0  0  0
    3.1114  -18.4398   27.5189 C   0  0  0  0  0  0  0  0  0  0  0  0
    3.4727  -17.9288   28.5483 O   0  0  0  0  0  0  0  0  0  0  0  0
    1.8949  -19.2646   27.2151 N   0  0  0  0  0  0  0  0  0  0  0  0
    0.8668  -19.7604   28.0737 C   0  0  0  0  0  0  0  0  0  0  0  0
    0.9324  -19.7011   29.3953 N   0  0  0  0  0  0  0  0  0  0  0  0
   -0.1596  -20.3589   29.9295 C   0  0  0  0  0  0  0  0  0  0  0  0
   -0.5154  -20.5561   31.2816 C   0  0  0  0  0  0  0  0  0  0  0  0
   -1.6537  -21.3018   31.6097 C   0  0  0  0  0  0  0  0  0  0  0  0
   -2.4284  -21.8552   30.6016 C   0  0  0  0  0  0  0  0  0  0  0  0
   -2.1171  -21.6368   29.2505 C   0  0  0  0  0  0  0  0  0  0  0  0
   -0.9741  -20.8656   28.9262 C   0  0  0  0  0  0  0  0  0  0  0  0
   -0.3818  -20.3879   27.7483 N   0  0  0  0  0  0  0  0  0  0  0  0
   -1.0573  -20.3081   26.4602 C   0  0  0  0  0  0  0  0  0  0  0  0
   -2.3242  -21.1342   26.2019 C   0  0  0  0  0  0  0  0  0  0  0  0
    4.9918  -16.9302   25.9335 C   0  0  0  0  0  0  0  0  0  0  0  0
    5.3145  -15.9933   26.9206 C   0  0  0  0  0  0  0  0  0  0  0  0
    5.9869  -14.7921   26.6140 C   0  0  0  0  0  0  0  0  0  0  0  0
    6.3760  -14.4808   25.3068 C   0  0  0  0  0  0  0  0  0  0  0  0
    6.1140  -15.3956   24.2997 C   0  0  0  0  0  0  0  0  0  0  0  0
    5.4532  -16.6031   24.6153 C   0  0  0  0  0  0  0  0  0  0  0  0
    2.8636  -21.3171   25.0630 H   0  0  0  0  0  0  0  0  0  0  0  0
    4.4390  -22.0536   24.6940 H   0  0  0  0  0  0  0  0  0  0  0  0
    4.1870  -21.1757   26.2155 H   0  0  0  0  0  0  0  0  0  0  0  0
    5.4724  -19.7679   24.5328 H   0  0  0  0  0  0  0  0  0  0  0  0
    4.1338  -19.9664   23.4023 H   0  0  0  0  0  0  0  0  0  0  0  0
    5.0145  -18.9686   26.5731 H   0  0  0  0  0  0  0  0  0  0  0  0
    1.8663  -19.4616   26.2234 H   0  0  0  0  0  0  0  0  0  0  0  0
    0.1156  -20.1362   32.0587 H   0  0  0  0  0  0  0  0  0  0  0  0
   -1.9109  -21.4607   32.6537 H   0  0  0  0  0  0  0  0  0  0  0  0
   -3.2810  -22.4692   30.8700 H   0  0  0  0  0  0  0  0  0  0  0  0
   -2.7519  -22.0877   28.5000 H   0  0  0  0  0  0  0  0  0  0  0  0
   -0.3051  -20.5857   25.7125 H   0  0  0  0  0  0  0  0  0  0  0  0
   -1.2927  -19.2470   26.3208 H   0  0  0  0  0  0  0  0  0  0  0  0
   -3.1612  -20.7917   26.8155 H   0  0  0  0  0  0  0  0  0  0  0  0
   -2.6269  -21.0248   25.1557 H   0  0  0  0  0  0  0  0  0  0  0  0
   -2.1436  -22.1993   26.3746 H   0  0  0  0  0  0  0  0  0  0  0  0
    5.0340  -16.1678   27.9582 H   0  0  0  0  0  0  0  0  0  0  0  0
    6.1905  -14.0884   27.4184 H   0  0  0  0  0  0  0  0  0  0  0  0
    6.8759  -13.5431   25.0900 H   0  0  0  0  0  0  0  0  0  0  0  0
    6.4059  -15.1876   23.2743 H   0  0  0  0  0  0  0  0  0  0  0  0
    5.2557  -17.2890   23.7938 H   0  0  0  0  0  0  0  0  0  0  0  0
  1  2  1  0
  2  3  1  0
  3  4  1  0
  4  5  1  0
  5  6  2  0
  5  7  1  0
  7  8  1  0
  8  9  2  0
  9 10  1  0
 10 11  2  0
 11 12  1  0
 12 13  2  0
 13 14  1  0
 14 15  2  0
 15 16  1  0
 16 17  1  0
 17 18  1  0
  4 19  1  0
 19 20  2  0
 20 21  1  0
 21 22  2  0
 22 23  1  0
 23 24  2  0
 16  8  1  0
 24 19  1  0
 15 10  1  0
  1 25  1  0
  1 26  1  0
  1 27  1  0
  2 28  1  0
  2 29  1  0
  4 30  1  0
  7 31  1  0
 11 32  1  0
 12 33  1  0
 13 34  1  0
 14 35  1  0
 17 36  1  0
 17 37  1  0
 18 38  1  0
 18 39  1  0
 18 40  1  0
 20 41  1  0
 21 42  1  0
 22 43  1  0
 23 44  1  0
 24 45  1  0
M  END
>  <Energy>  (1061) 
99.229831720717854

>  <compound_id>  (1061) 
77337

>  <target_id>  (1061) 
1

>  <reference_id>  (1061) 
20

>  <inspiration_ids>  (1061) 
[52, 20]

>  <energy_score>  (1061) 
-10.932633041110819

>  <distance_score>  (1061) 
14.701309970044933

>  <path>  (1061) 
/opt/xchem-fragalysis-2/maxwin/BulkDock/SCRATCH/511020/C77337-P20/C77337-P20.minimised.mol

>  <scratch_subdir>  (1061) 
/opt/xchem-fragalysis-2/maxwin/BulkDock/SCRATCH/511020/C77337-P20

>  <fragmenstein_runtime>  (1061) 
33.97279357910156

>  <fragmenstein_outcome>  (1061) 
too moved

>  <fragmenstein_mode>  (1061) 
expansion

>  <fragmenstein_error>  (1061) 


$$$$
C4827-P52
     RDKit          3D

 42 44  0  0  0  0  0  0  0  0999 V2000
   -9.8835  -20.5990   28.1012 C   0  0  0  0  0  0  0  0  0  0  0  0
   -9.0357  -18.9061   28.0042 C   0  0  0  0  0  0  0  0  0  0  0  0
   -8.1513  -18.3048   28.9487 N   0  0  0  0  0  0  0  0  0  0  0  0
   -6.4180  -17.4864   29.0092 C   0  0  0  0  0  0  0  0  0  0  0  0
   -5.2368  -17.1710   27.4682 N   0  0  0  0  0  0  0  0  0  0  0  0
   -3.9126  -15.7110   27.0390 C   0  0  0  0  0  0  0  0  0  0  0  0
   -3.7810  -14.8670   27.8913 O   0  0  0  0  0  0  0  0  0  0  0  0
   -2.7534  -15.1339   25.3061 C   0  0  0  0  0  0  0  0  0  0  0  0
   -1.7722  -13.5982   24.2768 O   0  0  0  0  0  0  0  0  0  0  0  0
    0.1039  -12.9120   23.6977 C   0  0  0  0  0  0  0  0  0  0  0  0
    2.0128  -11.7997   23.4938 C   0  0  0  0  0  0  0  0  0  0  0  0
    4.0165  -11.9338   24.2357 C   0  0  0  0  0  0  0  0  0  0  0  0
    5.2692  -10.6281   23.8537 C   0  0  0  0  0  0  0  0  0  0  0  0
    6.7084  -10.4415   24.0031 C   0  0  0  0  0  0  0  0  0  0  0  0
    6.8682  -10.9797   25.1981 C   0  0  0  0  0  0  0  0  0  0  0  0
    5.2113  -10.6783   25.7303 S   0  0  0  0  0  0  0  0  0  0  0  0
   -6.1070  -18.1019   30.6610 N   0  0  0  0  0  0  0  0  0  0  0  0
   -7.3328  -19.5265   31.6344 C   0  0  0  0  0  0  0  0  0  0  0  0
   -7.8564  -19.3462   33.0726 C   0  0  0  0  0  0  0  0  0  0  0  0
   -9.2395  -18.7444   32.8465 C   0  0  0  0  0  0  0  0  0  0  0  0
  -10.3886  -19.4393   32.3916 C   0  0  0  0  0  0  0  0  0  0  0  0
  -10.4137  -19.8418   31.0893 C   0  0  0  0  0  0  0  0  0  0  0  0
   -9.1555  -19.4670   30.5305 C   0  0  0  0  0  0  0  0  0  0  0  0
   -9.1516  -21.3973   28.2953 H   0  0  0  0  0  0  0  0  0  0  0  0
  -10.6189  -20.7098   28.9021 H   0  0  0  0  0  0  0  0  0  0  0  0
  -10.5734  -20.7829   27.2639 H   0  0  0  0  0  0  0  0  0  0  0  0
   -9.7507  -19.1268   28.8623 H   0  0  0  0  0  0  0  0  0  0  0  0
   -9.2162  -17.7789   27.6250 H   0  0  0  0  0  0  0  0  0  0  0  0
   -5.2042  -17.8612   26.7299 H   0  0  0  0  0  0  0  0  0  0  0  0
   -2.3937  -14.4441   26.1713 H   0  0  0  0  0  0  0  0  0  0  0  0
   -3.4691  -14.8681   24.5324 H   0  0  0  0  0  0  0  0  0  0  0  0
   -0.3598  -12.8130   22.7165 H   0  0  0  0  0  0  0  0  0  0  0  0
    0.1927  -12.1588   24.5892 H   0  0  0  0  0  0  0  0  0  0  0  0
    2.4067  -12.3588   22.6047 H   0  0  0  0  0  0  0  0  0  0  0  0
    1.7992  -10.8605   22.9672 H   0  0  0  0  0  0  0  0  0  0  0  0
    5.1129  -10.0521   22.9461 H   0  0  0  0  0  0  0  0  0  0  0  0
    7.4032   -9.8923   23.3826 H   0  0  0  0  0  0  0  0  0  0  0  0
    7.7501  -10.9853   25.8275 H   0  0  0  0  0  0  0  0  0  0  0  0
   -7.1584  -18.8088   33.7252 H   0  0  0  0  0  0  0  0  0  0  0  0
   -9.4189  -17.8027   33.3855 H   0  0  0  0  0  0  0  0  0  0  0  0
  -11.3370  -19.2706   32.8999 H   0  0  0  0  0  0  0  0  0  0  0  0
  -11.3373  -19.9979   30.5584 H   0  0  0  0  0  0  0  0  0  0  0  0
  1  2  1  0
  2  3  1  0
  3  4  1  0
  4  5  1  0
  5  6  1  0
  6  7  2  0
  6  8  1  0
  8  9  1  0
  9 10  1  0
 10 11  1  0
 11 12  1  0
 12 13  2  0
 13 14  1  0
 14 15  2  0
 15 16  1  0
  4 17  2  0
 17 18  1  0
 18 19  2  0
 19 20  1  0
 20 21  2  0
 21 22  1  0
 22 23  2  0
 23  3  1  0
 16 12  1  0
 23 18  1  0
  1 24  1  0
  1 25  1  0
  1 26  1  0
  2 27  1  0
  2 28  1  0
  5 29  1  0
  8 30  1  0
  8 31  1  0
 10 32  1  0
 10 33  1  0
 11 34  1  0
 11 35  1  0
 13 36  1  0
 14 37  1  0
 15 38  1  0
 19 39  1  0
 20 40  1  0
 21 41  1  0
 22 42  1  0
M  END
>  <Energy>  (1062) 
2492.0968128602367

>  <compound_id>  (1062) 
4827

>  <target_id>  (1062) 
1

>  <reference_id>  (1062) 
52

>  <inspiration_ids>  (1062) 
[52, 20]

>  <energy_score>  (1062) 
2410.641844656699

>  <distance_score>  (1062) 
9.071292241412856

>  <path>  (1062) 
/opt/xchem-fragalysis-2/maxwin/BulkDock/SCRATCH/511020/C4827-P52/C4827-P52.minimised.mol

>  <scratch_subdir>  (1062) 
/opt/xchem-fragalysis-2/maxwin/BulkDock/SCRATCH/511020/C4827-P52

>  <fragmenstein_runtime>  (1062) 
27.549248933792114

>  <fragmenstein_outcome>  (1062) 
too moved

>  <fragmenstein_mode>  (1062) 
expansion

>  <fragmenstein_error>  (1062) 


$$$$
C4827-P20
     RDKit          3D

 42 44  0  0  0  0  0  0  0  0999 V2000
   -9.0753  -14.3198   29.6541 C   0  0  0  0  0  0  0  0  0  0  0  0
   -8.1404  -13.2143   30.1561 C   0  0  0  0  0  0  0  0  0  0  0  0
   -7.6291  -13.3418   31.5087 N   0  0  0  0  0  0  0  0  0  0  0  0
   -7.4150  -12.3404   32.4692 C   0  0  0  0  0  0  0  0  0  0  0  0
   -7.1132  -10.9756   32.3832 N   0  0  0  0  0  0  0  0  0  0  0  0
   -7.1716  -10.0490   31.2548 C   0  0  0  0  0  0  0  0  0  0  0  0
   -7.5697  -10.2065   30.1333 O   0  0  0  0  0  0  0  0  0  0  0  0
   -6.4518   -8.5875   31.6327 C   0  0  0  0  0  0  0  0  0  0  0  0
   -6.0047   -7.7315   30.5349 O   0  0  0  0  0  0  0  0  0  0  0  0
   -4.8053   -6.8892   30.7043 C   0  0  0  0  0  0  0  0  0  0  0  0
   -4.3987   -6.1721   29.3423 C   0  0  0  0  0  0  0  0  0  0  0  0
   -2.9002   -5.9267   28.8944 C   0  0  0  0  0  0  0  0  0  0  0  0
   -1.6709   -6.1029   29.5159 C   0  0  0  0  0  0  0  0  0  0  0  0
   -0.5365   -5.7813   28.6835 C   0  0  0  0  0  0  0  0  0  0  0  0
   -0.9067   -5.3521   27.4323 C   0  0  0  0  0  0  0  0  0  0  0  0
   -2.6077   -5.2669   27.2953 S   0  0  0  0  0  0  0  0  0  0  0  0
   -7.4134  -12.9222   33.6621 N   0  0  0  0  0  0  0  0  0  0  0  0
   -7.3163  -14.2813   33.4562 C   0  0  0  0  0  0  0  0  0  0  0  0
   -7.1735  -15.3305   34.3853 C   0  0  0  0  0  0  0  0  0  0  0  0
   -6.8745  -16.6172   33.9215 C   0  0  0  0  0  0  0  0  0  0  0  0
   -6.7119  -16.8453   32.5576 C   0  0  0  0  0  0  0  0  0  0  0  0
   -6.9477  -15.8341   31.6131 C   0  0  0  0  0  0  0  0  0  0  0  0
   -7.2800  -14.5572   32.0973 C   0  0  0  0  0  0  0  0  0  0  0  0
   -9.8378  -14.5592   30.4009 H   0  0  0  0  0  0  0  0  0  0  0  0
   -9.5841  -13.9837   28.7442 H   0  0  0  0  0  0  0  0  0  0  0  0
   -8.5193  -15.2192   29.3852 H   0  0  0  0  0  0  0  0  0  0  0  0
   -7.2733  -13.1151   29.4979 H   0  0  0  0  0  0  0  0  0  0  0  0
   -8.7196  -12.2881   30.1363 H   0  0  0  0  0  0  0  0  0  0  0  0
   -6.7943  -10.4791   33.2033 H   0  0  0  0  0  0  0  0  0  0  0  0
   -5.5960   -8.8044   32.2819 H   0  0  0  0  0  0  0  0  0  0  0  0
   -7.1921   -8.0192   32.2051 H   0  0  0  0  0  0  0  0  0  0  0  0
   -5.0457   -6.1271   31.4534 H   0  0  0  0  0  0  0  0  0  0  0  0
   -3.9895   -7.4977   31.0991 H   0  0  0  0  0  0  0  0  0  0  0  0
   -4.8836   -5.1861   29.3469 H   0  0  0  0  0  0  0  0  0  0  0  0
   -4.8783   -6.7319   28.5308 H   0  0  0  0  0  0  0  0  0  0  0  0
   -1.5716   -6.4555   30.5352 H   0  0  0  0  0  0  0  0  0  0  0  0
    0.4911   -5.8670   29.0086 H   0  0  0  0  0  0  0  0  0  0  0  0
   -0.2723   -5.0631   26.6038 H   0  0  0  0  0  0  0  0  0  0  0  0
   -7.2306  -15.1220   35.4475 H   0  0  0  0  0  0  0  0  0  0  0  0
   -6.7268  -17.4310   34.6265 H   0  0  0  0  0  0  0  0  0  0  0  0
   -6.4248  -17.8361   32.2122 H   0  0  0  0  0  0  0  0  0  0  0  0
   -6.8391  -16.0441   30.5539 H   0  0  0  0  0  0  0  0  0  0  0  0
  1  2  1  0
  2  3  1  0
  3  4  1  0
  4  5  1  0
  5  6  1  0
  6  7  2  0
  6  8  1  0
  8  9  1  0
  9 10  1  0
 10 11  1  0
 11 12  1  0
 12 13  2  0
 13 14  1  0
 14 15  2  0
 15 16  1  0
  4 17  2  0
 17 18  1  0
 18 19  2  0
 19 20  1  0
 20 21  2  0
 21 22  1  0
 22 23  2  0
 23  3  1  0
 16 12  1  0
 23 18  1  0
  1 24  1  0
  1 25  1  0
  1 26  1  0
  2 27  1  0
  2 28  1  0
  5 29  1  0
  8 30  1  0
  8 31  1  0
 10 32  1  0
 10 33  1  0
 11 34  1  0
 11 35  1  0
 13 36  1  0
 14 37  1  0
 15 38  1  0
 19 39  1  0
 20 40  1  0
 21 41  1  0
 22 42  1  0
M  END
>  <Energy>  (1063) 
73.192595327391302

>  <compound_id>  (1063) 
4827

>  <target_id>  (1063) 
1

>  <reference_id>  (1063) 
20

>  <inspiration_ids>  (1063) 
[52, 20]

>  <energy_score>  (1063) 
-8.262372876160043

>  <distance_score>  (1063) 
13.589538462944823

>  <path>  (1063) 
/opt/xchem-fragalysis-2/maxwin/BulkDock/SCRATCH/511020/C4827-P20/C4827-P20.minimised.mol

>  <scratch_subdir>  (1063) 
/opt/xchem-fragalysis-2/maxwin/BulkDock/SCRATCH/511020/C4827-P20

>  <fragmenstein_runtime>  (1063) 
29.43987250328064

>  <fragmenstein_outcome>  (1063) 
too moved

>  <fragmenstein_mode>  (1063) 
expansion

>  <fragmenstein_error>  (1063) 


$$$$
C77338-P52
     RDKit          3D

 39 41  0  0  0  0  0  0  0  0999 V2000
    4.9943  -13.6578   22.2953 C   0  0  0  0  0  0  0  0  0  0  0  0
    4.8239  -12.3282   23.0039 C   0  0  0  0  0  0  0  0  0  0  0  0
    3.5860  -12.2167   23.6830 O   0  0  0  0  0  0  0  0  0  0  0  0
    2.1898  -11.7546   23.0495 C   0  0  0  0  0  0  0  0  0  0  0  0
    0.5805  -12.1782   24.2726 C   0  0  0  0  0  0  0  0  0  0  0  0
    0.8284  -11.8508   25.3996 O   0  0  0  0  0  0  0  0  0  0  0  0
   -0.9860  -13.0988   23.7372 N   0  0  0  0  0  0  0  0  0  0  0  0
   -2.3932  -13.8200   24.7553 C   0  0  0  0  0  0  0  0  0  0  0  0
   -2.7687  -15.2445   24.4322 N   0  0  0  0  0  0  0  0  0  0  0  0
   -2.2758  -16.7719   25.3041 C   0  0  0  0  0  0  0  0  0  0  0  0
   -2.6262  -18.5880   25.2464 C   0  0  0  0  0  0  0  0  0  0  0  0
   -2.6290  -19.3620   24.0768 F   0  0  0  0  0  0  0  0  0  0  0  0
   -2.7818  -19.6340   26.1803 C   0  0  0  0  0  0  0  0  0  0  0  0
   -3.1300  -19.1850   27.3435 C   0  0  0  0  0  0  0  0  0  0  0  0
   -3.2354  -17.7854   27.2407 C   0  0  0  0  0  0  0  0  0  0  0  0
   -2.4283  -16.3229   26.5597 C   0  0  0  0  0  0  0  0  0  0  0  0
   -2.3980  -14.6351   26.4251 N   0  0  0  0  0  0  0  0  0  0  0  0
    2.6522  -10.5283   21.8807 C   0  0  0  0  0  0  0  0  0  0  0  0
    3.3548  -11.0127   20.7166 C   0  0  0  0  0  0  0  0  0  0  0  0
    3.9379  -10.2117   19.7146 C   0  0  0  0  0  0  0  0  0  0  0  0
    3.9054   -8.8363   19.8190 C   0  0  0  0  0  0  0  0  0  0  0  0
    3.2805   -8.2938   20.9275 C   0  0  0  0  0  0  0  0  0  0  0  0
    2.6783   -9.1180   21.9263 C   0  0  0  0  0  0  0  0  0  0  0  0
    5.9801  -13.7170   21.8244 H   0  0  0  0  0  0  0  0  0  0  0  0
    4.2364  -13.8187   21.5290 H   0  0  0  0  0  0  0  0  0  0  0  0
    4.9050  -14.4847   23.0071 H   0  0  0  0  0  0  0  0  0  0  0  0
    5.5883  -12.2976   23.7903 H   0  0  0  0  0  0  0  0  0  0  0  0
    5.0545  -11.4678   22.3779 H   0  0  0  0  0  0  0  0  0  0  0  0
    2.3776  -12.6679   22.4603 H   0  0  0  0  0  0  0  0  0  0  0  0
   -1.0020  -13.1849   22.7381 H   0  0  0  0  0  0  0  0  0  0  0  0
   -2.8604  -20.6672   25.8728 H   0  0  0  0  0  0  0  0  0  0  0  0
   -3.7050  -19.8050   28.0177 H   0  0  0  0  0  0  0  0  0  0  0  0
   -4.3558  -17.6625   27.3999 H   0  0  0  0  0  0  0  0  0  0  0  0
   -1.9501  -14.0428   27.0969 H   0  0  0  0  0  0  0  0  0  0  0  0
    3.4569  -12.0855   20.5578 H   0  0  0  0  0  0  0  0  0  0  0  0
    4.4305  -10.6794   18.8646 H   0  0  0  0  0  0  0  0  0  0  0  0
    4.3579   -8.2067   19.0575 H   0  0  0  0  0  0  0  0  0  0  0  0
    3.2509   -7.2119   21.0483 H   0  0  0  0  0  0  0  0  0  0  0  0
    2.2948   -8.5217   22.7340 H   0  0  0  0  0  0  0  0  0  0  0  0
  1  2  1  0
  2  3  1  0
  3  4  1  0
  4  5  1  0
  5  6  2  0
  5  7  1  0
  7  8  1  0
  8  9  2  0
  9 10  1  0
 10 11  2  0
 11 12  1  0
 11 13  1  0
 13 14  2  0
 14 15  1  0
 15 16  2  0
 16 17  1  0
  4 18  1  0
 18 19  2  0
 19 20  1  0
 20 21  2  0
 21 22  1  0
 22 23  2  0
 17  8  1  0
 23 18  1  0
 16 10  1  0
  1 24  1  0
  1 25  1  0
  1 26  1  0
  2 27  1  0
  2 28  1  0
  4 29  1  0
  7 30  1  0
 13 31  1  0
 14 32  1  0
 15 33  1  0
 17 34  1  0
 19 35  1  0
 20 36  1  0
 21 37  1  0
 22 38  1  0
 23 39  1  0
M  END
>  <Energy>  (1064) 
828.14881327552348

>  <compound_id>  (1064) 
77338

>  <target_id>  (1064) 
1

>  <reference_id>  (1064) 
52

>  <inspiration_ids>  (1064) 
[52, 20]

>  <energy_score>  (1064) 
707.1623641981994

>  <distance_score>  (1064) 
13.522499499923905

>  <path>  (1064) 
/opt/xchem-fragalysis-2/maxwin/BulkDock/SCRATCH/511020/C77338-P52/C77338-P52.minimised.mol

>  <scratch_subdir>  (1064) 
/opt/xchem-fragalysis-2/maxwin/BulkDock/SCRATCH/511020/C77338-P52

>  <fragmenstein_runtime>  (1064) 
18.054558992385864

>  <fragmenstein_outcome>  (1064) 
too moved

>  <fragmenstein_mode>  (1064) 
expansion

>  <fragmenstein_error>  (1064) 


$$$$
C77338-P20
     RDKit          3D

 39 41  0  0  0  0  0  0  0  0999 V2000
   -0.5357  -15.6129   16.0736 C   0  0  0  0  0  0  0  0  0  0  0  0
    0.3512  -16.6183   16.7869 C   0  0  0  0  0  0  0  0  0  0  0  0
    1.4510  -15.9679   17.4137 O   0  0  0  0  0  0  0  0  0  0  0  0
    1.1626  -15.4433   18.7240 C   0  0  0  0  0  0  0  0  0  0  0  0
    0.7851  -16.6250   19.8741 C   0  0  0  0  0  0  0  0  0  0  0  0
    1.3047  -17.6990   19.6585 O   0  0  0  0  0  0  0  0  0  0  0  0
   -0.0736  -16.1630   21.0324 N   0  0  0  0  0  0  0  0  0  0  0  0
   -0.4543  -16.8535   22.3007 C   0  0  0  0  0  0  0  0  0  0  0  0
   -0.2580  -18.6681   22.7963 N   0  0  0  0  0  0  0  0  0  0  0  0
    0.2764  -18.9671   24.6824 C   0  0  0  0  0  0  0  0  0  0  0  0
    0.2600  -20.2161   25.3538 C   0  0  0  0  0  0  0  0  0  0  0  0
    0.9286  -21.2568   24.8360 F   0  0  0  0  0  0  0  0  0  0  0  0
   -0.5559  -20.4414   26.4811 C   0  0  0  0  0  0  0  0  0  0  0  0
   -1.4658  -19.5061   27.0181 C   0  0  0  0  0  0  0  0  0  0  0  0
   -1.6689  -18.1838   26.5508 C   0  0  0  0  0  0  0  0  0  0  0  0
   -0.8942  -17.6369   25.4780 C   0  0  0  0  0  0  0  0  0  0  0  0
   -1.2103  -16.0539   24.1490 N   0  0  0  0  0  0  0  0  0  0  0  0
    2.4351  -14.5212   18.8313 C   0  0  0  0  0  0  0  0  0  0  0  0
    3.5922  -14.8418   19.5434 C   0  0  0  0  0  0  0  0  0  0  0  0
    4.7236  -14.0034   19.5252 C   0  0  0  0  0  0  0  0  0  0  0  0
    4.7496  -12.8303   18.7636 C   0  0  0  0  0  0  0  0  0  0  0  0
    3.6395  -12.5002   17.9999 C   0  0  0  0  0  0  0  0  0  0  0  0
    2.5094  -13.3402   18.0268 C   0  0  0  0  0  0  0  0  0  0  0  0
   -1.0174  -14.9331   16.7826 H   0  0  0  0  0  0  0  0  0  0  0  0
   -1.3170  -16.1240   15.5036 H   0  0  0  0  0  0  0  0  0  0  0  0
    0.0553  -14.9955   15.3892 H   0  0  0  0  0  0  0  0  0  0  0  0
    0.7694  -17.3065   16.0450 H   0  0  0  0  0  0  0  0  0  0  0  0
   -0.2275  -17.2174   17.4968 H   0  0  0  0  0  0  0  0  0  0  0  0
    0.2725  -14.8135   18.6340 H   0  0  0  0  0  0  0  0  0  0  0  0
   -0.2659  -15.1908   20.9316 H   0  0  0  0  0  0  0  0  0  0  0  0
   -0.5302  -21.4402   26.9184 H   0  0  0  0  0  0  0  0  0  0  0  0
   -2.1042  -19.8440   27.8389 H   0  0  0  0  0  0  0  0  0  0  0  0
   -2.4485  -17.5743   26.9953 H   0  0  0  0  0  0  0  0  0  0  0  0
   -1.0772  -15.0629   24.3273 H   0  0  0  0  0  0  0  0  0  0  0  0
    3.6439  -15.7683   20.1037 H   0  0  0  0  0  0  0  0  0  0  0  0
    5.6006  -14.2881   20.1018 H   0  0  0  0  0  0  0  0  0  0  0  0
    5.6346  -12.2023   18.7527 H   0  0  0  0  0  0  0  0  0  0  0  0
    3.6436  -11.6120   17.3751 H   0  0  0  0  0  0  0  0  0  0  0  0
    1.6618  -13.0838   17.3925 H   0  0  0  0  0  0  0  0  0  0  0  0
  1  2  1  0
  2  3  1  0
  3  4  1  0
  4  5  1  0
  5  6  2  0
  5  7  1  0
  7  8  1  0
  8  9  2  0
  9 10  1  0
 10 11  2  0
 11 12  1  0
 11 13  1  0
 13 14  2  0
 14 15  1  0
 15 16  2  0
 16 17  1  0
  4 18  1  0
 18 19  2  0
 19 20  1  0
 20 21  2  0
 21 22  1  0
 22 23  2  0
 17  8  1  0
 23 18  1  0
 16 10  1  0
  1 24  1  0
  1 25  1  0
  1 26  1  0
  2 27  1  0
  2 28  1  0
  4 29  1  0
  7 30  1  0
 13 31  1  0
 14 32  1  0
 15 33  1  0
 17 34  1  0
 19 35  1  0
 20 36  1  0
 21 37  1  0
 22 38  1  0
 23 39  1  0
M  END
>  <Energy>  (1065) 
867.12308795428976

>  <compound_id>  (1065) 
77338

>  <target_id>  (1065) 
1

>  <reference_id>  (1065) 
20

>  <inspiration_ids>  (1065) 
[52, 20]

>  <energy_score>  (1065) 
746.1366388769459

>  <distance_score>  (1065) 
15.079066973139467

>  <path>  (1065) 
/opt/xchem-fragalysis-2/maxwin/BulkDock/SCRATCH/511020/C77338-P20/C77338-P20.minimised.mol

>  <scratch_subdir>  (1065) 
/opt/xchem-fragalysis-2/maxwin/BulkDock/SCRATCH/511020/C77338-P20

>  <fragmenstein_runtime>  (1065) 
24.026113033294678

>  <fragmenstein_outcome>  (1065) 
too moved

>  <fragmenstein_mode>  (1065) 
expansion

>  <fragmenstein_error>  (1065) 


$$$$
C77339-P52
     RDKit          3D

 48 50  0  0  0  0  0  0  0  0999 V2000
   -9.3660  -12.7205   29.0452 C   0  0  0  0  0  0  0  0  0  0  0  0
   -8.1577  -12.9532   28.1486 C   0  0  0  0  0  0  0  0  0  0  0  0
   -6.8676  -13.2629   28.9404 C   0  0  0  0  0  0  0  0  0  0  0  0
   -6.0809  -14.5289   28.4262 N   0  0  0  0  0  0  0  0  0  0  0  0
   -4.1807  -14.7598   27.8993 C   0  0  0  0  0  0  0  0  0  0  0  0
   -2.5935  -13.6172   27.3725 N   0  0  0  0  0  0  0  0  0  0  0  0
   -1.8572  -13.0633   25.6064 C   0  0  0  0  0  0  0  0  0  0  0  0
   -2.4729  -13.3892   24.6118 O   0  0  0  0  0  0  0  0  0  0  0  0
    0.1522  -12.0164   24.9939 C   0  0  0  0  0  0  0  0  0  0  0  0
    1.8030  -12.1200   25.8083 O   0  0  0  0  0  0  0  0  0  0  0  0
    3.4961  -12.5999   25.8117 C   0  0  0  0  0  0  0  0  0  0  0  0
    4.7972  -11.8286   26.2665 C   0  0  0  0  0  0  0  0  0  0  0  0
    1.4584  -11.4475   23.4557 C   0  0  0  0  0  0  0  0  0  0  0  0
    2.8484  -12.0170   22.9318 C   0  0  0  0  0  0  0  0  0  0  0  0
    3.8593  -11.4950   22.0096 C   0  0  0  0  0  0  0  0  0  0  0  0
    3.6953  -10.3092   21.3411 C   0  0  0  0  0  0  0  0  0  0  0  0
    2.4541   -9.7554   21.4718 C   0  0  0  0  0  0  0  0  0  0  0  0
    1.4364  -10.3581   22.3545 C   0  0  0  0  0  0  0  0  0  0  0  0
   -5.1243  -14.9939   29.3072 N   0  0  0  0  0  0  0  0  0  0  0  0
   -6.7431  -15.8387   29.7253 C   0  0  0  0  0  0  0  0  0  0  0  0
   -7.6997  -16.5577   31.0779 C   0  0  0  0  0  0  0  0  0  0  0  0
   -9.5244  -17.6786   31.5971 C   0  0  0  0  0  0  0  0  0  0  0  0
  -10.3954  -16.8642   29.6681 C   0  0  0  0  0  0  0  0  0  0  0  0
   -9.1400  -16.0913   28.4738 C   0  0  0  0  0  0  0  0  0  0  0  0
   -7.3547  -15.7962   28.4902 C   0  0  0  0  0  0  0  0  0  0  0  0
  -10.2680  -12.5874   28.4395 H   0  0  0  0  0  0  0  0  0  0  0  0
   -9.2246  -11.8084   29.6352 H   0  0  0  0  0  0  0  0  0  0  0  0
   -9.5393  -13.5339   29.7449 H   0  0  0  0  0  0  0  0  0  0  0  0
   -8.4333  -13.7100   27.4181 H   0  0  0  0  0  0  0  0  0  0  0  0
   -7.9852  -12.0419   27.5622 H   0  0  0  0  0  0  0  0  0  0  0  0
   -6.2159  -12.3997   29.0507 H   0  0  0  0  0  0  0  0  0  0  0  0
   -7.1369  -13.5227   29.9711 H   0  0  0  0  0  0  0  0  0  0  0  0
   -2.0242  -13.2023   28.1094 H   0  0  0  0  0  0  0  0  0  0  0  0
    0.1656  -12.7143   24.0369 H   0  0  0  0  0  0  0  0  0  0  0  0
    3.8107  -13.0064   24.8633 H   0  0  0  0  0  0  0  0  0  0  0  0
    3.5002  -13.4284   26.5321 H   0  0  0  0  0  0  0  0  0  0  0  0
    5.4608  -12.5368   26.7795 H   0  0  0  0  0  0  0  0  0  0  0  0
    5.3706  -11.5174   25.3829 H   0  0  0  0  0  0  0  0  0  0  0  0
    4.6981  -10.9542   26.9087 H   0  0  0  0  0  0  0  0  0  0  0  0
    3.2600  -12.9802   23.1790 H   0  0  0  0  0  0  0  0  0  0  0  0
    4.7681  -12.0762   21.8570 H   0  0  0  0  0  0  0  0  0  0  0  0
    4.4425   -9.9162   20.6641 H   0  0  0  0  0  0  0  0  0  0  0  0
    2.1663   -8.9144   20.8417 H   0  0  0  0  0  0  0  0  0  0  0  0
    0.4978   -9.9530   21.9635 H   0  0  0  0  0  0  0  0  0  0  0  0
   -7.0900  -16.2489   32.0053 H   0  0  0  0  0  0  0  0  0  0  0  0
   -9.8709  -17.8752   32.6247 H   0  0  0  0  0  0  0  0  0  0  0  0
  -11.3885  -16.4878   29.2371 H   0  0  0  0  0  0  0  0  0  0  0  0
   -9.6135  -15.6089   27.6069 H   0  0  0  0  0  0  0  0  0  0  0  0
  1  2  1  0
  2  3  1  0
  3  4  1  0
  4  5  1  0
  5  6  1  0
  6  7  1  0
  7  8  2  0
  7  9  1  0
  9 10  1  0
 10 11  1  0
 11 12  1  0
  9 13  1  0
 13 14  2  0
 14 15  1  0
 15 16  2  0
 16 17  1  0
 17 18  2  0
  5 19  2  0
 19 20  1  0
 20 21  2  0
 21 22  1  0
 22 23  2  0
 23 24  1  0
 24 25  2  0
 25  4  1  0
 18 13  1  0
 25 20  1  0
  1 26  1  0
  1 27  1  0
  1 28  1  0
  2 29  1  0
  2 30  1  0
  3 31  1  0
  3 32  1  0
  6 33  1  0
  9 34  1  0
 11 35  1  0
 11 36  1  0
 12 37  1  0
 12 38  1  0
 12 39  1  0
 14 40  1  0
 15 41  1  0
 16 42  1  0
 17 43  1  0
 18 44  1  0
 21 45  1  0
 22 46  1  0
 23 47  1  0
 24 48  1  0
M  END
>  <Energy>  (1066) 
2376.3037238729335

>  <compound_id>  (1066) 
77339

>  <target_id>  (1066) 
1

>  <reference_id>  (1066) 
52

>  <inspiration_ids>  (1066) 
[52, 20]

>  <energy_score>  (1066) 
2281.019722229769

>  <distance_score>  (1066) 
12.815863165528539

>  <path>  (1066) 
/opt/xchem-fragalysis-2/maxwin/BulkDock/SCRATCH/511020/C77339-P52/C77339-P52.minimised.mol

>  <scratch_subdir>  (1066) 
/opt/xchem-fragalysis-2/maxwin/BulkDock/SCRATCH/511020/C77339-P52

>  <fragmenstein_runtime>  (1066) 
26.569428205490112

>  <fragmenstein_outcome>  (1066) 
too moved

>  <fragmenstein_mode>  (1066) 
expansion

>  <fragmenstein_error>  (1066) 


$$$$
C77339-P20
     RDKit          3D

 48 50  0  0  0  0  0  0  0  0999 V2000
   -0.9577  -20.4594   25.7966 C   0  0  0  0  0  0  0  0  0  0  0  0
   -0.0352  -19.2157   25.6621 C   0  0  0  0  0  0  0  0  0  0  0  0
   -0.9967  -17.6433   25.6492 C   0  0  0  0  0  0  0  0  0  0  0  0
   -1.4961  -15.9306   24.4908 N   0  0  0  0  0  0  0  0  0  0  0  0
   -0.7747  -14.3353   23.8941 C   0  0  0  0  0  0  0  0  0  0  0  0
   -0.3577  -12.8257   22.7348 N   0  0  0  0  0  0  0  0  0  0  0  0
   -1.3772  -11.9875   21.3064 C   0  0  0  0  0  0  0  0  0  0  0  0
   -2.4366  -12.3091   20.7957 O   0  0  0  0  0  0  0  0  0  0  0  0
   -0.3718  -10.5119   20.7811 C   0  0  0  0  0  0  0  0  0  0  0  0
    0.2036  -10.7547   19.4507 O   0  0  0  0  0  0  0  0  0  0  0  0
    1.1993   -9.8899   18.9069 C   0  0  0  0  0  0  0  0  0  0  0  0
    2.5340   -9.9063   19.6323 C   0  0  0  0  0  0  0  0  0  0  0  0
   -0.8668   -9.0655   20.7426 C   0  0  0  0  0  0  0  0  0  0  0  0
   -1.9235   -8.6867   19.9183 C   0  0  0  0  0  0  0  0  0  0  0  0
   -2.0824   -7.3458   19.5375 C   0  0  0  0  0  0  0  0  0  0  0  0
   -1.1676   -6.3651   19.9433 C   0  0  0  0  0  0  0  0  0  0  0  0
   -0.1202   -6.7055   20.7870 C   0  0  0  0  0  0  0  0  0  0  0  0
    0.0127   -8.0354   21.1972 C   0  0  0  0  0  0  0  0  0  0  0  0
   -1.4307  -13.7827   25.2200 N   0  0  0  0  0  0  0  0  0  0  0  0
   -2.1969  -14.6731   26.0014 C   0  0  0  0  0  0  0  0  0  0  0  0
   -2.2509  -15.2114   27.5105 C   0  0  0  0  0  0  0  0  0  0  0  0
   -3.2039  -16.3664   27.8397 C   0  0  0  0  0  0  0  0  0  0  0  0
   -2.9039  -17.3138   27.0696 C   0  0  0  0  0  0  0  0  0  0  0  0
   -2.9257  -16.8008   25.7806 C   0  0  0  0  0  0  0  0  0  0  0  0
   -2.6546  -15.6238   25.0969 C   0  0  0  0  0  0  0  0  0  0  0  0
   -1.5437  -20.6141   24.8875 H   0  0  0  0  0  0  0  0  0  0  0  0
   -1.6350  -20.3640   26.6485 H   0  0  0  0  0  0  0  0  0  0  0  0
   -0.3428  -21.3516   25.9525 H   0  0  0  0  0  0  0  0  0  0  0  0
    0.6409  -19.3373   24.8052 H   0  0  0  0  0  0  0  0  0  0  0  0
    0.5702  -19.1794   26.5794 H   0  0  0  0  0  0  0  0  0  0  0  0
   -1.7883  -18.3979   25.5507 H   0  0  0  0  0  0  0  0  0  0  0  0
   -0.8844  -17.4646   26.7580 H   0  0  0  0  0  0  0  0  0  0  0  0
    0.4478  -12.2325   22.9819 H   0  0  0  0  0  0  0  0  0  0  0  0
    0.4536  -10.4979   21.4912 H   0  0  0  0  0  0  0  0  0  0  0  0
    1.3753  -10.2453   17.8848 H   0  0  0  0  0  0  0  0  0  0  0  0
    0.8239   -8.8710   18.7886 H   0  0  0  0  0  0  0  0  0  0  0  0
    2.4350   -9.6738   20.6934 H   0  0  0  0  0  0  0  0  0  0  0  0
    3.0044  -10.8912   19.5605 H   0  0  0  0  0  0  0  0  0  0  0  0
    3.2176   -9.1796   19.1822 H   0  0  0  0  0  0  0  0  0  0  0  0
   -2.5864   -9.4430   19.4991 H   0  0  0  0  0  0  0  0  0  0  0  0
   -2.9027   -7.0745   18.8764 H   0  0  0  0  0  0  0  0  0  0  0  0
   -1.2917   -5.3386   19.6096 H   0  0  0  0  0  0  0  0  0  0  0  0
    0.5922   -5.9551   21.1153 H   0  0  0  0  0  0  0  0  0  0  0  0
    0.8784   -8.2871   21.8042 H   0  0  0  0  0  0  0  0  0  0  0  0
   -1.8626  -14.6796   28.3511 H   0  0  0  0  0  0  0  0  0  0  0  0
   -3.7857  -16.5802   28.7511 H   0  0  0  0  0  0  0  0  0  0  0  0
   -2.8745  -18.3711   27.2352 H   0  0  0  0  0  0  0  0  0  0  0  0
   -2.8591  -17.5571   25.1188 H   0  0  0  0  0  0  0  0  0  0  0  0
  1  2  1  0
  2  3  1  0
  3  4  1  0
  4  5  1  0
  5  6  1  0
  6  7  1  0
  7  8  2  0
  7  9  1  0
  9 10  1  0
 10 11  1  0
 11 12  1  0
  9 13  1  0
 13 14  2  0
 14 15  1  0
 15 16  2  0
 16 17  1  0
 17 18  2  0
  5 19  2  0
 19 20  1  0
 20 21  2  0
 21 22  1  0
 22 23  2  0
 23 24  1  0
 24 25  2  0
 25  4  1  0
 18 13  1  0
 25 20  1  0
  1 26  1  0
  1 27  1  0
  1 28  1  0
  2 29  1  0
  2 30  1  0
  3 31  1  0
  3 32  1  0
  6 33  1  0
  9 34  1  0
 11 35  1  0
 11 36  1  0
 12 37  1  0
 12 38  1  0
 12 39  1  0
 14 40  1  0
 15 41  1  0
 16 42  1  0
 17 43  1  0
 18 44  1  0
 21 45  1  0
 22 46  1  0
 23 47  1  0
 24 48  1  0
M  END
>  <Energy>  (1067) 
1005.961173989242

>  <compound_id>  (1067) 
77339

>  <target_id>  (1067) 
1

>  <reference_id>  (1067) 
20

>  <inspiration_ids>  (1067) 
[52, 20]

>  <energy_score>  (1067) 
910.6771723460552

>  <distance_score>  (1067) 
14.224435492378287

>  <path>  (1067) 
/opt/xchem-fragalysis-2/maxwin/BulkDock/SCRATCH/511020/C77339-P20/C77339-P20.minimised.mol

>  <scratch_subdir>  (1067) 
/opt/xchem-fragalysis-2/maxwin/BulkDock/SCRATCH/511020/C77339-P20

>  <fragmenstein_runtime>  (1067) 
42.15475344657898

>  <fragmenstein_outcome>  (1067) 
too moved

>  <fragmenstein_mode>  (1067) 
expansion

>  <fragmenstein_error>  (1067) 


$$$$
C77340-P52
     RDKit          3D

 38 40  0  0  0  0  0  0  0  0999 V2000
   -3.0854  -14.8776   28.1170 O   0  0  0  0  0  0  0  0  0  0  0  0
   -4.0766  -14.4752   27.6128 C   0  0  0  0  0  0  0  0  0  0  0  0
   -5.4689  -14.7243   28.4056 C   0  0  0  0  0  0  0  0  0  0  0  0
   -5.2211  -15.5671   29.7648 C   0  0  0  0  0  0  0  0  0  0  0  0
   -6.0610  -15.7609   30.9375 N   0  0  0  0  0  0  0  0  0  0  0  0
   -6.9944  -14.8799   31.4144 C   0  0  0  0  0  0  0  0  0  0  0  0
   -7.3658  -15.1341   32.6577 N   0  0  0  0  0  0  0  0  0  0  0  0
   -6.6330  -16.2273   33.0422 C   0  0  0  0  0  0  0  0  0  0  0  0
   -6.6856  -16.9657   34.2375 C   0  0  0  0  0  0  0  0  0  0  0  0
   -5.7921  -18.0084   34.4297 C   0  0  0  0  0  0  0  0  0  0  0  0
   -4.8255  -18.2585   33.4497 C   0  0  0  0  0  0  0  0  0  0  0  0
   -4.8018  -17.6079   32.2149 C   0  0  0  0  0  0  0  0  0  0  0  0
   -5.7222  -16.5715   32.0320 C   0  0  0  0  0  0  0  0  0  0  0  0
   -4.2860  -13.6393   26.2613 N   0  0  0  0  0  0  0  0  0  0  0  0
   -3.3291  -13.0809   25.3627 N   0  0  0  0  0  0  0  0  0  0  0  0
   -3.7212  -12.4747   24.2699 C   0  0  0  0  0  0  0  0  0  0  0  0
   -2.6575  -11.4931   23.2440 C   0  0  0  0  0  0  0  0  0  0  0  0
   -3.1549  -10.5698   22.2579 C   0  0  0  0  0  0  0  0  0  0  0  0
   -2.4189   -9.7199   21.3514 C   0  0  0  0  0  0  0  0  0  0  0  0
   -1.0770   -9.7667   21.3522 C   0  0  0  0  0  0  0  0  0  0  0  0
   -0.5029  -10.6051   22.3362 C   0  0  0  0  0  0  0  0  0  0  0  0
   -1.2460  -11.4275   23.2532 C   0  0  0  0  0  0  0  0  0  0  0  0
   -5.8878  -13.7448   28.6566 H   0  0  0  0  0  0  0  0  0  0  0  0
   -6.1588  -15.2558   27.7462 H   0  0  0  0  0  0  0  0  0  0  0  0
   -4.6792  -16.4746   29.5401 H   0  0  0  0  0  0  0  0  0  0  0  0
   -4.4140  -14.9705   30.2287 H   0  0  0  0  0  0  0  0  0  0  0  0
   -7.3554  -14.0489   30.8241 H   0  0  0  0  0  0  0  0  0  0  0  0
   -7.3306  -16.6233   35.0274 H   0  0  0  0  0  0  0  0  0  0  0  0
   -5.7763  -18.5274   35.3826 H   0  0  0  0  0  0  0  0  0  0  0  0
   -4.0003  -18.9351   33.6464 H   0  0  0  0  0  0  0  0  0  0  0  0
   -4.0566  -17.8512   31.4695 H   0  0  0  0  0  0  0  0  0  0  0  0
   -5.2639  -13.3863   26.1650 H   0  0  0  0  0  0  0  0  0  0  0  0
   -4.7749  -12.4023   23.9491 H   0  0  0  0  0  0  0  0  0  0  0  0
   -4.2445  -10.5090   22.1720 H   0  0  0  0  0  0  0  0  0  0  0  0
   -2.9595   -9.1033   20.6372 H   0  0  0  0  0  0  0  0  0  0  0  0
   -0.5710   -9.2108   20.5707 H   0  0  0  0  0  0  0  0  0  0  0  0
    0.5747  -10.6448   22.4860 H   0  0  0  0  0  0  0  0  0  0  0  0
   -0.7064  -12.0336   23.9818 H   0  0  0  0  0  0  0  0  0  0  0  0
  1  2  2  0
  2  3  1  0
  3  4  1  0
  4  5  1  0
  5  6  1  0
  6  7  2  0
  7  8  1  0
  8  9  2  0
  9 10  1  0
 10 11  2  0
 11 12  1  0
 12 13  2  0
  2 14  1  0
 14 15  1  0
 15 16  2  3
 16 17  1  0
 17 18  2  0
 18 19  1  0
 19 20  2  0
 20 21  1  0
 21 22  2  0
 13  5  1  0
 22 17  1  0
 13  8  1  0
  3 23  1  0
  3 24  1  0
  4 25  1  0
  4 26  1  0
  6 27  1  0
  9 28  1  0
 10 29  1  0
 11 30  1  0
 12 31  1  0
 14 32  1  0
 16 33  1  0
 18 34  1  0
 19 35  1  0
 20 36  1  0
 21 37  1  0
 22 38  1  0
M  END
>  <Energy>  (1068) 
143.09032470622435

>  <compound_id>  (1068) 
77340

>  <target_id>  (1068) 
1

>  <reference_id>  (1068) 
52

>  <inspiration_ids>  (1068) 
[52, 20]

>  <energy_score>  (1068) 
54.59292481511284

>  <distance_score>  (1068) 
12.617993536966654

>  <path>  (1068) 
/opt/xchem-fragalysis-2/maxwin/BulkDock/SCRATCH/511020/C77340-P52/C77340-P52.minimised.mol

>  <scratch_subdir>  (1068) 
/opt/xchem-fragalysis-2/maxwin/BulkDock/SCRATCH/511020/C77340-P52

>  <fragmenstein_runtime>  (1068) 
15.993103265762329

>  <fragmenstein_outcome>  (1068) 
too moved

>  <fragmenstein_mode>  (1068) 
expansion

>  <fragmenstein_error>  (1068) 


$$$$
C77340-P20
     RDKit          3D

 38 40  0  0  0  0  0  0  0  0999 V2000
   -0.8320  -18.0360   31.0104 O   0  0  0  0  0  0  0  0  0  0  0  0
   -1.6067  -17.4154   30.3365 C   0  0  0  0  0  0  0  0  0  0  0  0
   -3.1078  -17.4856   30.6715 C   0  0  0  0  0  0  0  0  0  0  0  0
   -3.4548  -18.5798   31.7178 C   0  0  0  0  0  0  0  0  0  0  0  0
   -4.6268  -18.2941   32.5287 N   0  0  0  0  0  0  0  0  0  0  0  0
   -5.7942  -17.7951   32.0464 C   0  0  0  0  0  0  0  0  0  0  0  0
   -6.6264  -17.4487   32.9993 N   0  0  0  0  0  0  0  0  0  0  0  0
   -6.0209  -17.8440   34.1538 C   0  0  0  0  0  0  0  0  0  0  0  0
   -6.4865  -17.7432   35.4729 C   0  0  0  0  0  0  0  0  0  0  0  0
   -5.6685  -18.2067   36.5075 C   0  0  0  0  0  0  0  0  0  0  0  0
   -4.4145  -18.7562   36.2281 C   0  0  0  0  0  0  0  0  0  0  0  0
   -3.9300  -18.8530   34.9157 C   0  0  0  0  0  0  0  0  0  0  0  0
   -4.7614  -18.3878   33.8934 C   0  0  0  0  0  0  0  0  0  0  0  0
   -1.3773  -16.4771   29.2386 N   0  0  0  0  0  0  0  0  0  0  0  0
   -0.2260  -15.9730   28.7293 N   0  0  0  0  0  0  0  0  0  0  0  0
   -0.2551  -15.3513   27.5900 C   0  0  0  0  0  0  0  0  0  0  0  0
    1.0007  -14.6845   27.0572 C   0  0  0  0  0  0  0  0  0  0  0  0
    1.9873  -14.2339   27.9501 C   0  0  0  0  0  0  0  0  0  0  0  0
    3.1969  -13.6954   27.4977 C   0  0  0  0  0  0  0  0  0  0  0  0
    3.4485  -13.6295   26.1386 C   0  0  0  0  0  0  0  0  0  0  0  0
    2.4686  -14.0195   25.2258 C   0  0  0  0  0  0  0  0  0  0  0  0
    1.2370  -14.5261   25.6806 C   0  0  0  0  0  0  0  0  0  0  0  0
   -3.3889  -16.4967   31.0551 H   0  0  0  0  0  0  0  0  0  0  0  0
   -3.6730  -17.6672   29.7505 H   0  0  0  0  0  0  0  0  0  0  0  0
   -2.6234  -18.7223   32.4150 H   0  0  0  0  0  0  0  0  0  0  0  0
   -3.6305  -19.5427   31.2272 H   0  0  0  0  0  0  0  0  0  0  0  0
   -5.9668  -17.6932   30.9894 H   0  0  0  0  0  0  0  0  0  0  0  0
   -7.4625  -17.3171   35.6701 H   0  0  0  0  0  0  0  0  0  0  0  0
   -6.0177  -18.1465   37.5346 H   0  0  0  0  0  0  0  0  0  0  0  0
   -3.7966  -19.1153   37.0486 H   0  0  0  0  0  0  0  0  0  0  0  0
   -2.9504  -19.2732   34.7159 H   0  0  0  0  0  0  0  0  0  0  0  0
   -2.2660  -16.0753   28.9528 H   0  0  0  0  0  0  0  0  0  0  0  0
   -1.1605  -15.2937   26.9617 H   0  0  0  0  0  0  0  0  0  0  0  0
    1.8267  -14.3377   29.0230 H   0  0  0  0  0  0  0  0  0  0  0  0
    3.9536  -13.3866   28.2148 H   0  0  0  0  0  0  0  0  0  0  0  0
    4.4233  -13.2882   25.8220 H   0  0  0  0  0  0  0  0  0  0  0  0
    2.6850  -13.9870   24.1642 H   0  0  0  0  0  0  0  0  0  0  0  0
    0.5019  -14.8714   24.9580 H   0  0  0  0  0  0  0  0  0  0  0  0
  1  2  2  0
  2  3  1  0
  3  4  1  0
  4  5  1  0
  5  6  1  0
  6  7  2  0
  7  8  1  0
  8  9  2  0
  9 10  1  0
 10 11  2  0
 11 12  1  0
 12 13  2  0
  2 14  1  0
 14 15  1  0
 15 16  2  3
 16 17  1  0
 17 18  2  0
 18 19  1  0
 19 20  2  0
 20 21  1  0
 21 22  2  0
 13  5  1  0
 22 17  1  0
 13  8  1  0
  3 23  1  0
  3 24  1  0
  4 25  1  0
  4 26  1  0
  6 27  1  0
  9 28  1  0
 10 29  1  0
 11 30  1  0
 12 31  1  0
 14 32  1  0
 16 33  1  0
 18 34  1  0
 19 35  1  0
 20 36  1  0
 21 37  1  0
 22 38  1  0
M  END
>  <Energy>  (1069) 
77.668140374235037

>  <compound_id>  (1069) 
77340

>  <target_id>  (1069) 
1

>  <reference_id>  (1069) 
20

>  <inspiration_ids>  (1069) 
[52, 20]

>  <energy_score>  (1069) 
5.9594550290817665

>  <distance_score>  (1069) 
12.971709365918977

>  <path>  (1069) 
/opt/xchem-fragalysis-2/maxwin/BulkDock/SCRATCH/511020/C77340-P20/C77340-P20.minimised.mol

>  <scratch_subdir>  (1069) 
/opt/xchem-fragalysis-2/maxwin/BulkDock/SCRATCH/511020/C77340-P20

>  <fragmenstein_runtime>  (1069) 
44.697975158691406

>  <fragmenstein_outcome>  (1069) 
too moved

>  <fragmenstein_mode>  (1069) 
expansion

>  <fragmenstein_error>  (1069) 


$$$$
C77342-P52
     RDKit          3D

 32 34  0  0  0  0  0  0  0  0999 V2000
   -1.1630  -18.9069   28.9518 C   0  0  0  0  0  0  0  0  0  0  0  0
   -1.5484  -17.6585   29.5596 N   0  0  0  0  0  0  0  0  0  0  0  0
   -1.0077  -16.3873   29.3335 C   0  0  0  0  0  0  0  0  0  0  0  0
    0.3502  -15.9948   28.7492 C   0  0  0  0  0  0  0  0  0  0  0  0
    1.0504  -16.6700   27.7334 C   0  0  0  0  0  0  0  0  0  0  0  0
    2.3206  -16.2320   27.2538 C   0  0  0  0  0  0  0  0  0  0  0  0
    2.9352  -15.0929   27.7626 C   0  0  0  0  0  0  0  0  0  0  0  0
    2.2762  -14.3969   28.7623 C   0  0  0  0  0  0  0  0  0  0  0  0
    1.0074  -14.8337   29.2283 C   0  0  0  0  0  0  0  0  0  0  0  0
   -1.8802  -15.5026   29.8191 N   0  0  0  0  0  0  0  0  0  0  0  0
   -2.8392  -16.1958   30.5348 C   0  0  0  0  0  0  0  0  0  0  0  0
   -3.9296  -15.7096   31.2929 C   0  0  0  0  0  0  0  0  0  0  0  0
   -4.2519  -14.2441   31.3433 C   0  0  0  0  0  0  0  0  0  0  0  0
   -5.6527  -14.0302   31.4958 O   0  0  0  0  0  0  0  0  0  0  0  0
   -4.6379  -16.6386   32.0796 C   0  0  0  0  0  0  0  0  0  0  0  0
   -4.2849  -17.9827   32.0939 C   0  0  0  0  0  0  0  0  0  0  0  0
   -3.2574  -18.4776   31.2826 C   0  0  0  0  0  0  0  0  0  0  0  0
   -2.5677  -17.5523   30.4922 C   0  0  0  0  0  0  0  0  0  0  0  0
   -1.2470  -18.8016   27.8675 H   0  0  0  0  0  0  0  0  0  0  0  0
   -0.1339  -19.1304   29.2430 H   0  0  0  0  0  0  0  0  0  0  0  0
   -1.8198  -19.7163   29.2769 H   0  0  0  0  0  0  0  0  0  0  0  0
    0.6193  -17.5510   27.2678 H   0  0  0  0  0  0  0  0  0  0  0  0
    2.8126  -16.7986   26.4657 H   0  0  0  0  0  0  0  0  0  0  0  0
    3.8988  -14.7623   27.3897 H   0  0  0  0  0  0  0  0  0  0  0  0
    2.7236  -13.5052   29.1940 H   0  0  0  0  0  0  0  0  0  0  0  0
    0.5189  -14.2502   30.0102 H   0  0  0  0  0  0  0  0  0  0  0  0
   -3.7348  -13.7844   32.1919 H   0  0  0  0  0  0  0  0  0  0  0  0
   -3.9342  -13.7479   30.4204 H   0  0  0  0  0  0  0  0  0  0  0  0
   -5.7845  -13.0689   31.4543 H   0  0  0  0  0  0  0  0  0  0  0  0
   -5.4637  -16.2974   32.7014 H   0  0  0  0  0  0  0  0  0  0  0  0
   -4.8417  -18.6506   32.7380 H   0  0  0  0  0  0  0  0  0  0  0  0
   -2.9952  -19.5282   31.2938 H   0  0  0  0  0  0  0  0  0  0  0  0
  1  2  1  0
  2  3  1  0
  3  4  1  0
  4  5  2  0
  5  6  1  0
  6  7  2  0
  7  8  1  0
  8  9  2  0
  3 10  2  0
 10 11  1  0
 11 12  2  0
 12 13  1  0
 13 14  1  0
 12 15  1  0
 15 16  2  0
 16 17  1  0
 17 18  2  0
 18  2  1  0
  9  4  1  0
 18 11  1  0
  1 19  1  0
  1 20  1  0
  1 21  1  0
  5 22  1  0
  6 23  1  0
  7 24  1  0
  8 25  1  0
  9 26  1  0
 13 27  1  0
 13 28  1  0
 14 29  1  0
 15 30  1  0
 16 31  1  0
 17 32  1  0
M  END
>  <Energy>  (1070) 
47.105556026123338

>  <compound_id>  (1070) 
77342

>  <target_id>  (1070) 
1

>  <reference_id>  (1070) 
52

>  <inspiration_ids>  (1070) 
[52, 20]

>  <energy_score>  (1070) 
-4.510951554650546

>  <distance_score>  (1070) 
14.954537359296786

>  <path>  (1070) 
/opt/xchem-fragalysis-2/maxwin/BulkDock/SCRATCH/511020/C77342-P52/C77342-P52.minimised.mol

>  <scratch_subdir>  (1070) 
/opt/xchem-fragalysis-2/maxwin/BulkDock/SCRATCH/511020/C77342-P52

>  <fragmenstein_runtime>  (1070) 
12.557749032974243

>  <fragmenstein_outcome>  (1070) 
too moved

>  <fragmenstein_mode>  (1070) 
expansion

>  <fragmenstein_error>  (1070) 


$$$$
C77342-P20
     RDKit          3D

 32 34  0  0  0  0  0  0  0  0999 V2000
   -0.5112  -14.0846   26.0962 C   0  0  0  0  0  0  0  0  0  0  0  0
   -0.5668  -14.5732   24.7113 N   0  0  0  0  0  0  0  0  0  0  0  0
   -0.1746  -13.8458   23.2521 C   0  0  0  0  0  0  0  0  0  0  0  0
    0.5538  -11.9301   22.8567 C   0  0  0  0  0  0  0  0  0  0  0  0
    0.3443  -10.5473   21.9150 C   0  0  0  0  0  0  0  0  0  0  0  0
    1.7485   -9.6320   21.6827 C   0  0  0  0  0  0  0  0  0  0  0  0
    3.1996  -10.5726   22.6744 C   0  0  0  0  0  0  0  0  0  0  0  0
    3.0877  -11.9620   22.9846 C   0  0  0  0  0  0  0  0  0  0  0  0
    2.0023  -12.1527   23.6769 C   0  0  0  0  0  0  0  0  0  0  0  0
   -0.3233  -15.0093   22.5641 N   0  0  0  0  0  0  0  0  0  0  0  0
   -1.0645  -16.0468   23.2004 C   0  0  0  0  0  0  0  0  0  0  0  0
   -1.6031  -17.2568   22.6919 C   0  0  0  0  0  0  0  0  0  0  0  0
   -1.3905  -17.6658   21.2619 C   0  0  0  0  0  0  0  0  0  0  0  0
   -2.4848  -17.2091   20.4747 O   0  0  0  0  0  0  0  0  0  0  0  0
   -2.4040  -18.0727   23.5449 C   0  0  0  0  0  0  0  0  0  0  0  0
   -2.6398  -17.7303   24.8707 C   0  0  0  0  0  0  0  0  0  0  0  0
   -2.0736  -16.5657   25.3841 C   0  0  0  0  0  0  0  0  0  0  0  0
   -1.2916  -15.7576   24.5158 C   0  0  0  0  0  0  0  0  0  0  0  0
    0.4324  -13.5719   26.2928 H   0  0  0  0  0  0  0  0  0  0  0  0
   -0.5244  -14.9362   26.7820 H   0  0  0  0  0  0  0  0  0  0  0  0
   -1.3823  -13.4516   26.2814 H   0  0  0  0  0  0  0  0  0  0  0  0
   -0.5568  -10.3461   21.3470 H   0  0  0  0  0  0  0  0  0  0  0  0
    1.5567   -9.3255   20.6632 H   0  0  0  0  0  0  0  0  0  0  0  0
    4.2995  -10.7463   22.3408 H   0  0  0  0  0  0  0  0  0  0  0  0
    3.4142  -12.6484   22.2232 H   0  0  0  0  0  0  0  0  0  0  0  0
    2.0513  -13.0361   24.3066 H   0  0  0  0  0  0  0  0  0  0  0  0
   -1.3241  -18.7548   21.1723 H   0  0  0  0  0  0  0  0  0  0  0  0
   -0.4663  -17.2445   20.8549 H   0  0  0  0  0  0  0  0  0  0  0  0
   -2.5078  -16.2450   20.6096 H   0  0  0  0  0  0  0  0  0  0  0  0
   -2.8464  -18.9825   23.1420 H   0  0  0  0  0  0  0  0  0  0  0  0
   -3.2564  -18.3653   25.5007 H   0  0  0  0  0  0  0  0  0  0  0  0
   -2.2461  -16.2912   26.4194 H   0  0  0  0  0  0  0  0  0  0  0  0
  1  2  1  0
  2  3  1  0
  3  4  1  0
  4  5  2  0
  5  6  1  0
  6  7  2  0
  7  8  1  0
  8  9  2  0
  3 10  2  0
 10 11  1  0
 11 12  2  0
 12 13  1  0
 13 14  1  0
 12 15  1  0
 15 16  2  0
 16 17  1  0
 17 18  2  0
 18  2  1  0
  9  4  1  0
 18 11  1  0
  1 19  1  0
  1 20  1  0
  1 21  1  0
  5 22  1  0
  6 23  1  0
  7 24  1  0
  8 25  1  0
  9 26  1  0
 13 27  1  0
 13 28  1  0
 14 29  1  0
 15 30  1  0
 16 31  1  0
 17 32  1  0
M  END
>  <Energy>  (1071) 
515.41443782558053

>  <compound_id>  (1071) 
77342

>  <target_id>  (1071) 
1

>  <reference_id>  (1071) 
20

>  <inspiration_ids>  (1071) 
[52, 20]

>  <energy_score>  (1071) 
463.79793024480756

>  <distance_score>  (1071) 
15.06125412702302

>  <path>  (1071) 
/opt/xchem-fragalysis-2/maxwin/BulkDock/SCRATCH/511020/C77342-P20/C77342-P20.minimised.mol

>  <scratch_subdir>  (1071) 
/opt/xchem-fragalysis-2/maxwin/BulkDock/SCRATCH/511020/C77342-P20

>  <fragmenstein_runtime>  (1071) 
13.134430646896362

>  <fragmenstein_outcome>  (1071) 
too moved

>  <fragmenstein_mode>  (1071) 
expansion

>  <fragmenstein_error>  (1071) 


$$$$
C77346-P52
     RDKit          3D

 35 37  0  0  0  0  0  0  0  0999 V2000
   -4.4323   -9.4556   30.4965 C   0  0  0  0  0  0  0  0  0  0  0  0
   -5.1936   -9.5333   29.2978 O   0  0  0  0  0  0  0  0  0  0  0  0
   -4.5711   -9.1225   28.1502 C   0  0  0  0  0  0  0  0  0  0  0  0
   -5.2522   -9.4418   26.9759 C   0  0  0  0  0  0  0  0  0  0  0  0
   -4.7198   -9.1071   25.7182 C   0  0  0  0  0  0  0  0  0  0  0  0
   -3.4873   -8.4213   25.6403 C   0  0  0  0  0  0  0  0  0  0  0  0
   -2.7235   -8.0317   24.5438 N   0  0  0  0  0  0  0  0  0  0  0  0
   -1.5965   -7.4801   24.9989 C   0  0  0  0  0  0  0  0  0  0  0  0
   -0.3962   -6.6519   23.8880 S   0  0  0  0  0  0  0  0  0  0  0  0
    1.4830   -6.7434   24.2329 C   0  0  0  0  0  0  0  0  0  0  0  0
    1.7832   -8.0026   25.0398 C   0  0  0  0  0  0  0  0  0  0  0  0
    2.4308   -6.7203   22.9176 C   0  0  0  0  0  0  0  0  0  0  0  0
    2.6103   -7.7649   22.2816 O   0  0  0  0  0  0  0  0  0  0  0  0
    3.1796   -5.5184   22.5007 C   0  0  0  0  0  0  0  0  0  0  0  0
    3.3548   -4.2325   22.9828 C   0  0  0  0  0  0  0  0  0  0  0  0
    4.2282   -3.5475   22.0852 C   0  0  0  0  0  0  0  0  0  0  0  0
    4.5414   -4.4442   21.0969 C   0  0  0  0  0  0  0  0  0  0  0  0
    3.9472   -5.6365   21.3499 O   0  0  0  0  0  0  0  0  0  0  0  0
   -1.6441   -7.4666   26.3834 N   0  0  0  0  0  0  0  0  0  0  0  0
   -2.8345   -8.0730   26.8152 C   0  0  0  0  0  0  0  0  0  0  0  0
   -3.3615   -8.4020   28.0888 C   0  0  0  0  0  0  0  0  0  0  0  0
   -3.4925  -10.0106   30.4103 H   0  0  0  0  0  0  0  0  0  0  0  0
   -5.0195   -9.9190   31.2952 H   0  0  0  0  0  0  0  0  0  0  0  0
   -4.2523   -8.4133   30.7789 H   0  0  0  0  0  0  0  0  0  0  0  0
   -6.2083   -9.9558   27.0294 H   0  0  0  0  0  0  0  0  0  0  0  0
   -5.2431   -9.3744   24.8067 H   0  0  0  0  0  0  0  0  0  0  0  0
    1.7288   -5.8657   24.8392 H   0  0  0  0  0  0  0  0  0  0  0  0
    2.8600   -8.0900   25.2233 H   0  0  0  0  0  0  0  0  0  0  0  0
    1.4714   -8.9092   24.5094 H   0  0  0  0  0  0  0  0  0  0  0  0
    1.2871   -7.9827   26.0152 H   0  0  0  0  0  0  0  0  0  0  0  0
    2.8982   -3.8178   23.8709 H   0  0  0  0  0  0  0  0  0  0  0  0
    4.5600   -2.5202   22.1451 H   0  0  0  0  0  0  0  0  0  0  0  0
    5.1297   -4.3929   20.1910 H   0  0  0  0  0  0  0  0  0  0  0  0
   -0.9365   -7.0853   26.9904 H   0  0  0  0  0  0  0  0  0  0  0  0
   -2.8092   -8.1281   28.9798 H   0  0  0  0  0  0  0  0  0  0  0  0
  1  2  1  0
  2  3  1  0
  3  4  2  0
  4  5  1  0
  5  6  2  0
  6  7  1  0
  7  8  2  0
  8  9  1  0
  9 10  1  0
 10 11  1  0
 10 12  1  0
 12 13  2  0
 12 14  1  0
 14 15  2  0
 15 16  1  0
 16 17  2  0
 17 18  1  0
  8 19  1  0
 19 20  1  0
 20 21  2  0
 21  3  1  0
 20  6  1  0
 18 14  1  0
  1 22  1  0
  1 23  1  0
  1 24  1  0
  4 25  1  0
  5 26  1  0
 10 27  1  0
 11 28  1  0
 11 29  1  0
 11 30  1  0
 15 31  1  0
 16 32  1  0
 17 33  1  0
 19 34  1  0
 21 35  1  0
M  END
>  <Energy>  (1072) 
78.744379457941037

>  <compound_id>  (1072) 
77346

>  <target_id>  (1072) 
1

>  <reference_id>  (1072) 
52

>  <inspiration_ids>  (1072) 
[52, 20]

>  <energy_score>  (1072) 
1.2907170733478779

>  <distance_score>  (1072) 
15.781264602824672

>  <path>  (1072) 
/opt/xchem-fragalysis-2/maxwin/BulkDock/SCRATCH/511020/C77346-P52/C77346-P52.minimised.mol

>  <scratch_subdir>  (1072) 
/opt/xchem-fragalysis-2/maxwin/BulkDock/SCRATCH/511020/C77346-P52

>  <fragmenstein_runtime>  (1072) 
11.774280786514282

>  <fragmenstein_outcome>  (1072) 
too moved

>  <fragmenstein_mode>  (1072) 
expansion

>  <fragmenstein_error>  (1072) 


$$$$
C77346-P20
     RDKit          3D

 35 37  0  0  0  0  0  0  0  0999 V2000
    1.0708  -20.0499   30.5364 C   0  0  0  0  0  0  0  0  0  0  0  0
    1.4089  -18.6718   30.4324 O   0  0  0  0  0  0  0  0  0  0  0  0
    2.1663  -18.3106   29.3523 C   0  0  0  0  0  0  0  0  0  0  0  0
    2.3328  -19.0545   28.1892 C   0  0  0  0  0  0  0  0  0  0  0  0
    3.1892  -18.5918   27.1641 C   0  0  0  0  0  0  0  0  0  0  0  0
    3.8676  -17.3541   27.2900 C   0  0  0  0  0  0  0  0  0  0  0  0
    4.7531  -16.6724   26.4226 N   0  0  0  0  0  0  0  0  0  0  0  0
    5.0303  -15.5037   26.9832 C   0  0  0  0  0  0  0  0  0  0  0  0
    6.2921  -14.2444   26.5934 S   0  0  0  0  0  0  0  0  0  0  0  0
    6.4632  -13.6488   24.7237 C   0  0  0  0  0  0  0  0  0  0  0  0
    6.8597  -14.8531   23.8857 C   0  0  0  0  0  0  0  0  0  0  0  0
    7.5543  -12.4513   24.5239 C   0  0  0  0  0  0  0  0  0  0  0  0
    8.3938  -12.1822   25.3878 O   0  0  0  0  0  0  0  0  0  0  0  0
    7.5906  -11.6555   23.2720 C   0  0  0  0  0  0  0  0  0  0  0  0
    8.4593  -10.6280   22.9018 C   0  0  0  0  0  0  0  0  0  0  0  0
    8.0875  -10.1911   21.6063 C   0  0  0  0  0  0  0  0  0  0  0  0
    7.0125  -10.9708   21.2536 C   0  0  0  0  0  0  0  0  0  0  0  0
    6.7031  -11.8543   22.2489 O   0  0  0  0  0  0  0  0  0  0  0  0
    4.3846  -15.4513   28.2225 N   0  0  0  0  0  0  0  0  0  0  0  0
    3.6366  -16.6047   28.4345 C   0  0  0  0  0  0  0  0  0  0  0  0
    2.8100  -17.0675   29.4834 C   0  0  0  0  0  0  0  0  0  0  0  0
    1.9658  -20.6808   30.5093 H   0  0  0  0  0  0  0  0  0  0  0  0
    0.3629  -20.3440   29.7563 H   0  0  0  0  0  0  0  0  0  0  0  0
    0.5823  -20.2022   31.5036 H   0  0  0  0  0  0  0  0  0  0  0  0
    1.8326  -20.0041   28.0405 H   0  0  0  0  0  0  0  0  0  0  0  0
    3.3303  -19.1747   26.2583 H   0  0  0  0  0  0  0  0  0  0  0  0
    5.4833  -13.2662   24.4282 H   0  0  0  0  0  0  0  0  0  0  0  0
    7.8359  -15.2466   24.1898 H   0  0  0  0  0  0  0  0  0  0  0  0
    6.9391  -14.5816   22.8279 H   0  0  0  0  0  0  0  0  0  0  0  0
    6.1196  -15.6561   23.9621 H   0  0  0  0  0  0  0  0  0  0  0  0
    9.2688  -10.2559   23.5168 H   0  0  0  0  0  0  0  0  0  0  0  0
    8.5468   -9.4156   21.0107 H   0  0  0  0  0  0  0  0  0  0  0  0
    6.3830  -11.0287   20.3761 H   0  0  0  0  0  0  0  0  0  0  0  0
    4.5055  -14.6982   28.8800 H   0  0  0  0  0  0  0  0  0  0  0  0
    2.6922  -16.5022   30.4011 H   0  0  0  0  0  0  0  0  0  0  0  0
  1  2  1  0
  2  3  1  0
  3  4  2  0
  4  5  1  0
  5  6  2  0
  6  7  1  0
  7  8  2  0
  8  9  1  0
  9 10  1  0
 10 11  1  0
 10 12  1  0
 12 13  2  0
 12 14  1  0
 14 15  2  0
 15 16  1  0
 16 17  2  0
 17 18  1  0
  8 19  1  0
 19 20  1  0
 20 21  2  0
 21  3  1  0
 20  6  1  0
 18 14  1  0
  1 22  1  0
  1 23  1  0
  1 24  1  0
  4 25  1  0
  5 26  1  0
 10 27  1  0
 11 28  1  0
 11 29  1  0
 11 30  1  0
 15 31  1  0
 16 32  1  0
 17 33  1  0
 19 34  1  0
 21 35  1  0
M  END
>  <Energy>  (1073) 
65.419292369875109

>  <compound_id>  (1073) 
77346

>  <target_id>  (1073) 
1

>  <reference_id>  (1073) 
20

>  <inspiration_ids>  (1073) 
[52, 20]

>  <energy_score>  (1073) 
-12.034370014714625

>  <distance_score>  (1073) 
15.164303596383595

>  <path>  (1073) 
/opt/xchem-fragalysis-2/maxwin/BulkDock/SCRATCH/511020/C77346-P20/C77346-P20.minimised.mol

>  <scratch_subdir>  (1073) 
/opt/xchem-fragalysis-2/maxwin/BulkDock/SCRATCH/511020/C77346-P20

>  <fragmenstein_runtime>  (1073) 
15.421672582626343

>  <fragmenstein_outcome>  (1073) 
too moved

>  <fragmenstein_mode>  (1073) 
expansion

>  <fragmenstein_error>  (1073) 


$$$$
C77347-P52
     RDKit          3D

 45 48  0  0  0  0  0  0  0  0999 V2000
   -1.1154  -21.3562   22.0172 C   0  0  0  0  0  0  0  0  0  0  0  0
    0.2650  -21.3385   21.6656 O   0  0  0  0  0  0  0  0  0  0  0  0
    0.6960  -20.2064   21.0229 C   0  0  0  0  0  0  0  0  0  0  0  0
   -0.1193  -19.2831   20.3719 C   0  0  0  0  0  0  0  0  0  0  0  0
    0.4314  -18.1329   19.7577 C   0  0  0  0  0  0  0  0  0  0  0  0
    1.8290  -17.9021   19.8006 C   0  0  0  0  0  0  0  0  0  0  0  0
    2.6299  -16.8208   19.3447 N   0  0  0  0  0  0  0  0  0  0  0  0
    3.8649  -17.0653   19.7555 C   0  0  0  0  0  0  0  0  0  0  0  0
    5.3652  -16.0483   19.7821 S   0  0  0  0  0  0  0  0  0  0  0  0
    5.3564  -14.4004   18.7852 C   0  0  0  0  0  0  0  0  0  0  0  0
    4.1097  -13.6037   19.1352 C   0  0  0  0  0  0  0  0  0  0  0  0
    6.6475  -13.4878   19.0665 C   0  0  0  0  0  0  0  0  0  0  0  0
    7.0986  -13.2339   20.1867 O   0  0  0  0  0  0  0  0  0  0  0  0
    7.3914  -12.8073   17.9507 C   0  0  0  0  0  0  0  0  0  0  0  0
    6.8259  -11.7790   17.1720 C   0  0  0  0  0  0  0  0  0  0  0  0
    7.6065  -11.0787   16.2326 C   0  0  0  0  0  0  0  0  0  0  0  0
    8.9441  -11.4025   16.0960 C   0  0  0  0  0  0  0  0  0  0  0  0
    9.5133  -12.4077   16.8823 C   0  0  0  0  0  0  0  0  0  0  0  0
    8.7586  -13.1022   17.8169 C   0  0  0  0  0  0  0  0  0  0  0  0
   10.9590  -12.5960   16.5417 C   0  0  0  0  0  0  0  0  0  0  0  0
   11.2624  -11.2835   15.8051 C   0  0  0  0  0  0  0  0  0  0  0  0
    9.9503  -10.8368   15.1443 C   0  0  0  0  0  0  0  0  0  0  0  0
    3.8769  -18.2753   20.4424 N   0  0  0  0  0  0  0  0  0  0  0  0
    2.6145  -18.8419   20.4532 C   0  0  0  0  0  0  0  0  0  0  0  0
    2.0884  -20.0162   21.0314 C   0  0  0  0  0  0  0  0  0  0  0  0
   -1.2793  -22.2138   22.6769 H   0  0  0  0  0  0  0  0  0  0  0  0
   -1.7418  -21.4946   21.1303 H   0  0  0  0  0  0  0  0  0  0  0  0
   -1.4027  -20.4545   22.5689 H   0  0  0  0  0  0  0  0  0  0  0  0
   -1.1866  -19.4352   20.2865 H   0  0  0  0  0  0  0  0  0  0  0  0
   -0.2092  -17.4046   19.2719 H   0  0  0  0  0  0  0  0  0  0  0  0
    5.3571  -14.6789   17.7265 H   0  0  0  0  0  0  0  0  0  0  0  0
    3.1981  -14.1424   18.8603 H   0  0  0  0  0  0  0  0  0  0  0  0
    4.0946  -12.6498   18.5979 H   0  0  0  0  0  0  0  0  0  0  0  0
    4.0712  -13.3675   20.2043 H   0  0  0  0  0  0  0  0  0  0  0  0
    5.7864  -11.4927   17.3083 H   0  0  0  0  0  0  0  0  0  0  0  0
    7.1718  -10.2943   15.6291 H   0  0  0  0  0  0  0  0  0  0  0  0
    9.2216  -13.8571   18.4473 H   0  0  0  0  0  0  0  0  0  0  0  0
   11.0806  -13.4596   15.8801 H   0  0  0  0  0  0  0  0  0  0  0  0
   11.5875  -12.7099   17.4293 H   0  0  0  0  0  0  0  0  0  0  0  0
   12.0803  -11.3854   15.0852 H   0  0  0  0  0  0  0  0  0  0  0  0
   11.5708  -10.5289   16.5414 H   0  0  0  0  0  0  0  0  0  0  0  0
    9.8300  -11.2917   14.1557 H   0  0  0  0  0  0  0  0  0  0  0  0
    9.8922   -9.7492   15.0629 H   0  0  0  0  0  0  0  0  0  0  0  0
    4.6842  -18.6409   20.9194 H   0  0  0  0  0  0  0  0  0  0  0  0
    2.7393  -20.7229   21.5324 H   0  0  0  0  0  0  0  0  0  0  0  0
  1  2  1  0
  2  3  1  0
  3  4  2  0
  4  5  1  0
  5  6  2  0
  6  7  1  0
  7  8  2  0
  8  9  1  0
  9 10  1  0
 10 11  1  0
 10 12  1  0
 12 13  2  0
 12 14  1  0
 14 15  2  0
 15 16  1  0
 16 17  2  0
 17 18  1  0
 18 19  2  0
 18 20  1  0
 20 21  1  0
 21 22  1  0
  8 23  1  0
 23 24  1  0
 24 25  2  0
 25  3  1  0
 24  6  1  0
 19 14  1  0
 22 17  1  0
  1 26  1  0
  1 27  1  0
  1 28  1  0
  4 29  1  0
  5 30  1  0
 10 31  1  0
 11 32  1  0
 11 33  1  0
 11 34  1  0
 15 35  1  0
 16 36  1  0
 19 37  1  0
 20 38  1  0
 20 39  1  0
 21 40  1  0
 21 41  1  0
 22 42  1  0
 22 43  1  0
 23 44  1  0
 25 45  1  0
M  END
>  <Energy>  (1074) 
83.561671170014407

>  <compound_id>  (1074) 
77347

>  <target_id>  (1074) 
1

>  <reference_id>  (1074) 
52

>  <inspiration_ids>  (1074) 
[52, 20]

>  <energy_score>  (1074) 
-10.214023666432922

>  <distance_score>  (1074) 
16.101878191691583

>  <path>  (1074) 
/opt/xchem-fragalysis-2/maxwin/BulkDock/SCRATCH/511020/C77347-P52/C77347-P52.minimised.mol

>  <scratch_subdir>  (1074) 
/opt/xchem-fragalysis-2/maxwin/BulkDock/SCRATCH/511020/C77347-P52

>  <fragmenstein_runtime>  (1074) 
35.82144117355347

>  <fragmenstein_outcome>  (1074) 
too moved

>  <fragmenstein_mode>  (1074) 
expansion

>  <fragmenstein_error>  (1074) 


$$$$
C77347-P20
     RDKit          3D

 45 48  0  0  0  0  0  0  0  0999 V2000
   -0.5406  -22.4948   21.7525 C   0  0  0  0  0  0  0  0  0  0  0  0
    0.6987  -21.9958   21.2663 O   0  0  0  0  0  0  0  0  0  0  0  0
    0.6887  -20.7184   20.7718 C   0  0  0  0  0  0  0  0  0  0  0  0
   -0.4451  -19.9585   20.5015 C   0  0  0  0  0  0  0  0  0  0  0  0
   -0.3395  -18.6381   20.0054 C   0  0  0  0  0  0  0  0  0  0  0  0
    0.9351  -18.1014   19.7156 C   0  0  0  0  0  0  0  0  0  0  0  0
    1.3361  -16.8452   19.2554 N   0  0  0  0  0  0  0  0  0  0  0  0
    2.6698  -16.8215   19.2328 C   0  0  0  0  0  0  0  0  0  0  0  0
    3.6649  -15.3151   19.5023 S   0  0  0  0  0  0  0  0  0  0  0  0
    5.1081  -14.9086   18.3263 C   0  0  0  0  0  0  0  0  0  0  0  0
    6.1166  -16.0439   18.4513 C   0  0  0  0  0  0  0  0  0  0  0  0
    5.7973  -13.4821   18.6521 C   0  0  0  0  0  0  0  0  0  0  0  0
    5.3939  -12.7025   19.5170 O   0  0  0  0  0  0  0  0  0  0  0  0
    7.0239  -13.0036   17.9061 C   0  0  0  0  0  0  0  0  0  0  0  0
    7.8904  -12.1004   18.5711 C   0  0  0  0  0  0  0  0  0  0  0  0
    9.0981  -11.6883   18.0023 C   0  0  0  0  0  0  0  0  0  0  0  0
    9.4136  -12.1404   16.7385 C   0  0  0  0  0  0  0  0  0  0  0  0
    8.5469  -13.0008   16.0531 C   0  0  0  0  0  0  0  0  0  0  0  0
    7.3485  -13.4304   16.6158 C   0  0  0  0  0  0  0  0  0  0  0  0
    9.1518  -13.4317   14.7530 C   0  0  0  0  0  0  0  0  0  0  0  0
   10.2757  -12.4015   14.5772 C   0  0  0  0  0  0  0  0  0  0  0  0
   10.6811  -11.9234   15.9764 C   0  0  0  0  0  0  0  0  0  0  0  0
    3.1278  -18.0851   19.5854 N   0  0  0  0  0  0  0  0  0  0  0  0
    2.0501  -18.8953   19.9382 C   0  0  0  0  0  0  0  0  0  0  0  0
    1.9586  -20.1941   20.4814 C   0  0  0  0  0  0  0  0  0  0  0  0
   -1.2407  -22.6693   20.9290 H   0  0  0  0  0  0  0  0  0  0  0  0
   -0.3471  -23.4585   22.2334 H   0  0  0  0  0  0  0  0  0  0  0  0
   -0.9750  -21.8291   22.5059 H   0  0  0  0  0  0  0  0  0  0  0  0
   -1.4289  -20.3866   20.6284 H   0  0  0  0  0  0  0  0  0  0  0  0
   -1.2215  -18.0340   19.8245 H   0  0  0  0  0  0  0  0  0  0  0  0
    4.6854  -14.8526   17.3186 H   0  0  0  0  0  0  0  0  0  0  0  0
    6.5414  -16.0910   19.4606 H   0  0  0  0  0  0  0  0  0  0  0  0
    6.9553  -15.9165   17.7613 H   0  0  0  0  0  0  0  0  0  0  0  0
    5.6637  -17.0130   18.2177 H   0  0  0  0  0  0  0  0  0  0  0  0
    7.6319  -11.7395   19.5670 H   0  0  0  0  0  0  0  0  0  0  0  0
    9.7767  -11.0740   18.5781 H   0  0  0  0  0  0  0  0  0  0  0  0
    6.7057  -14.1057   16.0622 H   0  0  0  0  0  0  0  0  0  0  0  0
    9.5584  -14.4439   14.8462 H   0  0  0  0  0  0  0  0  0  0  0  0
    8.4374  -13.3891   13.9260 H   0  0  0  0  0  0  0  0  0  0  0  0
   11.1223  -12.7971   14.0075 H   0  0  0  0  0  0  0  0  0  0  0  0
    9.8853  -11.5480   14.0159 H   0  0  0  0  0  0  0  0  0  0  0  0
   10.9908  -10.8749   15.9681 H   0  0  0  0  0  0  0  0  0  0  0  0
   11.4804  -12.5472   16.3893 H   0  0  0  0  0  0  0  0  0  0  0  0
    4.0927  -18.3139   19.7602 H   0  0  0  0  0  0  0  0  0  0  0  0
    2.8502  -20.7764   20.6892 H   0  0  0  0  0  0  0  0  0  0  0  0
  1  2  1  0
  2  3  1  0
  3  4  2  0
  4  5  1  0
  5  6  2  0
  6  7  1  0
  7  8  2  0
  8  9  1  0
  9 10  1  0
 10 11  1  0
 10 12  1  0
 12 13  2  0
 12 14  1  0
 14 15  2  0
 15 16  1  0
 16 17  2  0
 17 18  1  0
 18 19  2  0
 18 20  1  0
 20 21  1  0
 21 22  1  0
  8 23  1  0
 23 24  1  0
 24 25  2  0
 25  3  1  0
 24  6  1  0
 19 14  1  0
 22 17  1  0
  1 26  1  0
  1 27  1  0
  1 28  1  0
  4 29  1  0
  5 30  1  0
 10 31  1  0
 11 32  1  0
 11 33  1  0
 11 34  1  0
 15 35  1  0
 16 36  1  0
 19 37  1  0
 20 38  1  0
 20 39  1  0
 21 40  1  0
 21 41  1  0
 22 42  1  0
 22 43  1  0
 23 44  1  0
 25 45  1  0
M  END
>  <Energy>  (1075) 
91.521625921831316

>  <compound_id>  (1075) 
77347

>  <target_id>  (1075) 
1

>  <reference_id>  (1075) 
20

>  <inspiration_ids>  (1075) 
[52, 20]

>  <energy_score>  (1075) 
-2.254068914612617

>  <distance_score>  (1075) 
16.058103179036255

>  <path>  (1075) 
/opt/xchem-fragalysis-2/maxwin/BulkDock/SCRATCH/511020/C77347-P20/C77347-P20.minimised.mol

>  <scratch_subdir>  (1075) 
/opt/xchem-fragalysis-2/maxwin/BulkDock/SCRATCH/511020/C77347-P20

>  <fragmenstein_runtime>  (1075) 
35.87658929824829

>  <fragmenstein_outcome>  (1075) 
too moved

>  <fragmenstein_mode>  (1075) 
expansion

>  <fragmenstein_error>  (1075) 


$$$$
C77348-P52
     RDKit          3D

 38 40  0  0  0  0  0  0  0  0999 V2000
   -8.9396  -22.3181   28.1006 C   0  0  0  0  0  0  0  0  0  0  0  0
   -7.6235  -21.6571   27.8428 O   0  0  0  0  0  0  0  0  0  0  0  0
   -6.7571  -21.5175   26.7780 C   0  0  0  0  0  0  0  0  0  0  0  0
   -6.3016  -22.2603   25.6229 C   0  0  0  0  0  0  0  0  0  0  0  0
   -5.3464  -21.8873   24.6143 C   0  0  0  0  0  0  0  0  0  0  0  0
   -4.8732  -20.6079   24.7408 C   0  0  0  0  0  0  0  0  0  0  0  0
   -3.7827  -19.7822   24.1188 N   0  0  0  0  0  0  0  0  0  0  0  0
   -3.6911  -18.5966   24.8372 C   0  0  0  0  0  0  0  0  0  0  0  0
   -2.2258  -16.7257   25.2255 S   0  0  0  0  0  0  0  0  0  0  0  0
   -2.5679  -14.6136   23.9826 C   0  0  0  0  0  0  0  0  0  0  0  0
   -2.4615  -13.3198   24.9921 C   0  0  0  0  0  0  0  0  0  0  0  0
   -1.4841  -13.8314   22.4628 C   0  0  0  0  0  0  0  0  0  0  0  0
   -0.6456  -12.9330   22.7260 O   0  0  0  0  0  0  0  0  0  0  0  0
   -1.0256  -14.0898   20.6108 C   0  0  0  0  0  0  0  0  0  0  0  0
   -0.5735  -15.3035   20.0260 C   0  0  0  0  0  0  0  0  0  0  0  0
   -0.0351  -15.4203   18.7175 C   0  0  0  0  0  0  0  0  0  0  0  0
    0.1063  -14.3167   17.8835 C   0  0  0  0  0  0  0  0  0  0  0  0
   -0.3652  -13.1023   18.3269 C   0  0  0  0  0  0  0  0  0  0  0  0
   -0.9272  -13.0070   19.6248 C   0  0  0  0  0  0  0  0  0  0  0  0
   -4.8791  -18.8100   25.7119 N   0  0  0  0  0  0  0  0  0  0  0  0
   -5.4914  -19.9386   25.7434 C   0  0  0  0  0  0  0  0  0  0  0  0
   -6.3580  -20.2467   26.7507 C   0  0  0  0  0  0  0  0  0  0  0  0
   -9.2872  -22.9387   27.2670 H   0  0  0  0  0  0  0  0  0  0  0  0
   -8.8842  -22.9514   28.9947 H   0  0  0  0  0  0  0  0  0  0  0  0
   -9.6869  -21.5489   28.3350 H   0  0  0  0  0  0  0  0  0  0  0  0
   -6.8047  -23.1515   25.2939 H   0  0  0  0  0  0  0  0  0  0  0  0
   -5.0484  -22.5590   23.8209 H   0  0  0  0  0  0  0  0  0  0  0  0
   -3.5969  -14.5795   23.6555 H   0  0  0  0  0  0  0  0  0  0  0  0
   -3.0585  -12.4300   25.0718 H   0  0  0  0  0  0  0  0  0  0  0  0
   -2.2709  -13.5463   26.0551 H   0  0  0  0  0  0  0  0  0  0  0  0
   -1.7511  -12.6882   24.5062 H   0  0  0  0  0  0  0  0  0  0  0  0
   -0.5903  -16.2373   20.5800 H   0  0  0  0  0  0  0  0  0  0  0  0
    0.3042  -16.3973   18.3785 H   0  0  0  0  0  0  0  0  0  0  0  0
    0.5483  -14.4207   16.8982 H   0  0  0  0  0  0  0  0  0  0  0  0
   -0.2907  -12.2182   17.7018 H   0  0  0  0  0  0  0  0  0  0  0  0
   -1.1845  -11.9767   19.8675 H   0  0  0  0  0  0  0  0  0  0  0  0
   -4.9082  -18.1817   26.4948 H   0  0  0  0  0  0  0  0  0  0  0  0
   -6.6778  -19.5057   27.4639 H   0  0  0  0  0  0  0  0  0  0  0  0
  1  2  1  0
  2  3  1  0
  3  4  2  0
  4  5  1  0
  5  6  2  0
  6  7  1  0
  7  8  2  0
  8  9  1  0
  9 10  1  0
 10 11  1  0
 10 12  1  0
 12 13  2  0
 12 14  1  0
 14 15  2  0
 15 16  1  0
 16 17  2  0
 17 18  1  0
 18 19  2  0
  8 20  1  0
 20 21  1  0
 21 22  2  0
 22  3  1  0
 21  6  1  0
 19 14  1  0
  1 23  1  0
  1 24  1  0
  1 25  1  0
  4 26  1  0
  5 27  1  0
 10 28  1  0
 11 29  1  0
 11 30  1  0
 11 31  1  0
 15 32  1  0
 16 33  1  0
 17 34  1  0
 18 35  1  0
 19 36  1  0
 20 37  1  0
 22 38  1  0
M  END
>  <Energy>  (1076) 
548.39281796723867

>  <compound_id>  (1076) 
77348

>  <target_id>  (1076) 
1

>  <reference_id>  (1076) 
52

>  <inspiration_ids>  (1076) 
[52, 20]

>  <energy_score>  (1076) 
470.2929795499249

>  <distance_score>  (1076) 
14.52483998439988

>  <path>  (1076) 
/opt/xchem-fragalysis-2/maxwin/BulkDock/SCRATCH/511020/C77348-P52/C77348-P52.minimised.mol

>  <scratch_subdir>  (1076) 
/opt/xchem-fragalysis-2/maxwin/BulkDock/SCRATCH/511020/C77348-P52

>  <fragmenstein_runtime>  (1076) 
17.333223581314087

>  <fragmenstein_outcome>  (1076) 
too moved

>  <fragmenstein_mode>  (1076) 
expansion

>  <fragmenstein_error>  (1076) 


$$$$
C77348-P20
     RDKit          3D

 38 40  0  0  0  0  0  0  0  0999 V2000
    4.6188  -18.5438   26.7007 C   0  0  0  0  0  0  0  0  0  0  0  0
    4.8101  -18.2112   25.3328 O   0  0  0  0  0  0  0  0  0  0  0  0
    5.1798  -16.9229   25.0569 C   0  0  0  0  0  0  0  0  0  0  0  0
    5.2919  -15.8866   25.9870 C   0  0  0  0  0  0  0  0  0  0  0  0
    5.7285  -14.6051   25.5796 C   0  0  0  0  0  0  0  0  0  0  0  0
    6.1136  -14.3696   24.2359 C   0  0  0  0  0  0  0  0  0  0  0  0
    6.7982  -13.2863   23.6321 N   0  0  0  0  0  0  0  0  0  0  0  0
    7.1142  -13.6743   22.4001 C   0  0  0  0  0  0  0  0  0  0  0  0
    8.5663  -13.2388   21.3196 S   0  0  0  0  0  0  0  0  0  0  0  0
    8.9119  -11.3396   20.8555 C   0  0  0  0  0  0  0  0  0  0  0  0
    7.6295  -10.8539   20.2085 C   0  0  0  0  0  0  0  0  0  0  0  0
   10.2498  -11.1413   19.8566 C   0  0  0  0  0  0  0  0  0  0  0  0
   11.0473  -12.0454   19.6057 O   0  0  0  0  0  0  0  0  0  0  0  0
   10.6826   -9.8142   19.1952 C   0  0  0  0  0  0  0  0  0  0  0  0
    9.6612   -8.2424   19.5789 C   0  0  0  0  0  0  0  0  0  0  0  0
    9.9416   -6.4094   18.6272 C   0  0  0  0  0  0  0  0  0  0  0  0
   11.0035   -6.5184   16.8111 C   0  0  0  0  0  0  0  0  0  0  0  0
   12.0684   -8.0805   16.4149 C   0  0  0  0  0  0  0  0  0  0  0  0
   11.4493   -9.7180   17.3810 C   0  0  0  0  0  0  0  0  0  0  0  0
    6.4725  -14.8948   22.1482 N   0  0  0  0  0  0  0  0  0  0  0  0
    5.9367  -15.4030   23.3265 C   0  0  0  0  0  0  0  0  0  0  0  0
    5.4402  -16.6739   23.6946 C   0  0  0  0  0  0  0  0  0  0  0  0
    4.3907  -19.6123   26.7549 H   0  0  0  0  0  0  0  0  0  0  0  0
    5.5293  -18.3698   27.2838 H   0  0  0  0  0  0  0  0  0  0  0  0
    3.7687  -17.9980   27.1226 H   0  0  0  0  0  0  0  0  0  0  0  0
    5.0708  -16.0312   27.0387 H   0  0  0  0  0  0  0  0  0  0  0  0
    5.8787  -13.8198   26.3128 H   0  0  0  0  0  0  0  0  0  0  0  0
    9.1234  -10.8321   21.8011 H   0  0  0  0  0  0  0  0  0  0  0  0
    6.7418  -11.1372   20.7840 H   0  0  0  0  0  0  0  0  0  0  0  0
    7.5250  -11.2432   19.1904 H   0  0  0  0  0  0  0  0  0  0  0  0
    7.6111   -9.7663   20.1519 H   0  0  0  0  0  0  0  0  0  0  0  0
    9.2825   -8.2760   20.6069 H   0  0  0  0  0  0  0  0  0  0  0  0
   10.0898   -5.6399   19.3818 H   0  0  0  0  0  0  0  0  0  0  0  0
   11.4853   -5.5674   16.4651 H   0  0  0  0  0  0  0  0  0  0  0  0
   12.6923   -8.1666   15.5542 H   0  0  0  0  0  0  0  0  0  0  0  0
   11.6917  -10.6931   16.9135 H   0  0  0  0  0  0  0  0  0  0  0  0
    6.6433  -15.4366   21.3172 H   0  0  0  0  0  0  0  0  0  0  0  0
    5.3518  -17.4747   22.9667 H   0  0  0  0  0  0  0  0  0  0  0  0
  1  2  1  0
  2  3  1  0
  3  4  2  0
  4  5  1  0
  5  6  2  0
  6  7  1  0
  7  8  2  0
  8  9  1  0
  9 10  1  0
 10 11  1  0
 10 12  1  0
 12 13  2  0
 12 14  1  0
 14 15  2  0
 15 16  1  0
 16 17  2  0
 17 18  1  0
 18 19  2  0
  8 20  1  0
 20 21  1  0
 21 22  2  0
 22  3  1  0
 21  6  1  0
 19 14  1  0
  1 23  1  0
  1 24  1  0
  1 25  1  0
  4 26  1  0
  5 27  1  0
 10 28  1  0
 11 29  1  0
 11 30  1  0
 11 31  1  0
 15 32  1  0
 16 33  1  0
 17 34  1  0
 18 35  1  0
 19 36  1  0
 20 37  1  0
 22 38  1  0
M  END
>  <Energy>  (1077) 
788.44357636314487

>  <compound_id>  (1077) 
77348

>  <target_id>  (1077) 
1

>  <reference_id>  (1077) 
20

>  <inspiration_ids>  (1077) 
[52, 20]

>  <energy_score>  (1077) 
710.3437379458064

>  <distance_score>  (1077) 
16.45465777898925

>  <path>  (1077) 
/opt/xchem-fragalysis-2/maxwin/BulkDock/SCRATCH/511020/C77348-P20/C77348-P20.minimised.mol

>  <scratch_subdir>  (1077) 
/opt/xchem-fragalysis-2/maxwin/BulkDock/SCRATCH/511020/C77348-P20

>  <fragmenstein_runtime>  (1077) 
20.68026375770569

>  <fragmenstein_outcome>  (1077) 
too moved

>  <fragmenstein_mode>  (1077) 
expansion

>  <fragmenstein_error>  (1077) 


$$$$
C9242-P52
     RDKit          3D

 46 49  0  0  0  0  0  0  0  0999 V2000
   -1.5077  -18.5086   30.2415 C   0  0  0  0  0  0  0  0  0  0  0  0
   -2.2054  -17.9634   29.0041 C   0  0  0  0  0  0  0  0  0  0  0  0
   -3.0113  -19.3468   28.0790 S   0  0  0  0  0  0  0  0  0  0  0  0
   -4.5666  -19.5495   28.8912 C   0  0  0  0  0  0  0  0  0  0  0  0
   -4.9618  -18.9897   30.5704 N   0  0  0  0  0  0  0  0  0  0  0  0
   -6.6765  -19.9929   31.2186 C   0  0  0  0  0  0  0  0  0  0  0  0
   -6.9744  -21.1967   32.6299 C   0  0  0  0  0  0  0  0  0  0  0  0
   -8.0492  -22.5724   32.4724 C   0  0  0  0  0  0  0  0  0  0  0  0
   -8.5441  -23.2170   31.0925 C   0  0  0  0  0  0  0  0  0  0  0  0
   -8.2160  -22.5960   29.5263 C   0  0  0  0  0  0  0  0  0  0  0  0
   -7.1117  -20.9474   29.2286 C   0  0  0  0  0  0  0  0  0  0  0  0
   -5.8361  -20.8058   28.0863 N   0  0  0  0  0  0  0  0  0  0  0  0
   -7.5708  -21.2042   27.6355 C   0  0  0  0  0  0  0  0  0  0  0  0
   -9.2786  -21.0149   28.2455 C   0  0  0  0  0  0  0  0  0  0  0  0
  -10.5406  -21.7750   28.0779 C   0  0  0  0  0  0  0  0  0  0  0  0
  -10.5125  -22.8853   27.3065 C   0  0  0  0  0  0  0  0  0  0  0  0
   -9.2607  -23.0739   26.6892 C   0  0  0  0  0  0  0  0  0  0  0  0
   -7.7109  -22.2573   26.7914 C   0  0  0  0  0  0  0  0  0  0  0  0
   -1.2653  -17.1847   28.0203 C   0  0  0  0  0  0  0  0  0  0  0  0
   -1.6972  -16.2196   27.3994 O   0  0  0  0  0  0  0  0  0  0  0  0
    0.0172  -17.6989   27.8162 N   0  0  0  0  0  0  0  0  0  0  0  0
    1.3799  -17.4718   28.3720 C   0  0  0  0  0  0  0  0  0  0  0  0
    2.4460  -16.5146   27.5880 C   0  0  0  0  0  0  0  0  0  0  0  0
    1.8841  -15.5426   28.4715 C   0  0  0  0  0  0  0  0  0  0  0  0
    1.1208  -16.8462   28.9870 C   0  0  0  0  0  0  0  0  0  0  0  0
   -1.0610  -17.6916   30.8172 H   0  0  0  0  0  0  0  0  0  0  0  0
   -0.7064  -19.2118   29.9901 H   0  0  0  0  0  0  0  0  0  0  0  0
   -2.2090  -19.0214   30.9080 H   0  0  0  0  0  0  0  0  0  0  0  0
   -2.9798  -17.2527   29.3165 H   0  0  0  0  0  0  0  0  0  0  0  0
   -6.0185  -21.7621   32.7050 H   0  0  0  0  0  0  0  0  0  0  0  0
   -8.1977  -23.1789   33.3684 H   0  0  0  0  0  0  0  0  0  0  0  0
   -9.1444  -24.1275   31.1317 H   0  0  0  0  0  0  0  0  0  0  0  0
   -8.7323  -23.1857   28.8048 H   0  0  0  0  0  0  0  0  0  0  0  0
   -9.7086  -20.2493   28.9113 H   0  0  0  0  0  0  0  0  0  0  0  0
  -11.4510  -21.4283   28.5560 H   0  0  0  0  0  0  0  0  0  0  0  0
  -11.3944  -23.4499   27.0375 H   0  0  0  0  0  0  0  0  0  0  0  0
   -9.4416  -23.5899   25.7209 H   0  0  0  0  0  0  0  0  0  0  0  0
   -6.9366  -22.4915   26.0493 H   0  0  0  0  0  0  0  0  0  0  0  0
    1.8574  -18.4666   28.9469 H   0  0  0  0  0  0  0  0  0  0  0  0
    1.6817  -18.2211   27.5317 H   0  0  0  0  0  0  0  0  0  0  0  0
    2.2548  -16.3945   26.5265 H   0  0  0  0  0  0  0  0  0  0  0  0
    3.4830  -16.7839   27.8113 H   0  0  0  0  0  0  0  0  0  0  0  0
    2.5655  -15.1299   29.2185 H   0  0  0  0  0  0  0  0  0  0  0  0
    1.2349  -14.7965   28.0207 H   0  0  0  0  0  0  0  0  0  0  0  0
    0.2610  -16.1866   29.4171 H   0  0  0  0  0  0  0  0  0  0  0  0
    1.2159  -17.1864   30.1499 H   0  0  0  0  0  0  0  0  0  0  0  0
  1  2  1  0
  2  3  1  0
  3  4  1  0
  4  5  2  0
  5  6  1  0
  6  7  2  0
  7  8  1  0
  8  9  2  0
  9 10  1  0
 10 11  2  0
 11 12  1  0
 12 13  1  0
 13 14  2  0
 14 15  1  0
 15 16  2  0
 16 17  1  0
 17 18  2  0
  2 19  1  0
 19 20  2  0
 19 21  1  0
 21 22  1  0
 22 23  1  0
 23 24  1  0
 24 25  1  0
 12  4  1  0
 18 13  1  0
 25 21  1  0
 11  6  1  0
  1 26  1  0
  1 27  1  0
  1 28  1  0
  2 29  1  0
  7 30  1  0
  8 31  1  0
  9 32  1  0
 10 33  1  0
 14 34  1  0
 15 35  1  0
 16 36  1  0
 17 37  1  0
 18 38  1  0
 22 39  1  0
 22 40  1  0
 23 41  1  0
 23 42  1  0
 24 43  1  0
 24 44  1  0
 25 45  1  0
 25 46  1  0
M  END
>  <Energy>  (1078) 
2034.5759619561422

>  <compound_id>  (1078) 
9242

>  <target_id>  (1078) 
1

>  <reference_id>  (1078) 
52

>  <inspiration_ids>  (1078) 
[52, 20]

>  <energy_score>  (1078) 
1919.8861614048528

>  <distance_score>  (1078) 
12.748826871833769

>  <path>  (1078) 
/opt/xchem-fragalysis-2/maxwin/BulkDock/SCRATCH/511020/C9242-P52/C9242-P52.minimised.mol

>  <scratch_subdir>  (1078) 
/opt/xchem-fragalysis-2/maxwin/BulkDock/SCRATCH/511020/C9242-P52

>  <fragmenstein_runtime>  (1078) 
33.28778076171875

>  <fragmenstein_outcome>  (1078) 
too moved

>  <fragmenstein_mode>  (1078) 
expansion

>  <fragmenstein_error>  (1078) 


$$$$
C9242-P20
     RDKit          3D

 46 49  0  0  0  0  0  0  0  0999 V2000
   -0.4329  -15.6178   30.9917 C   0  0  0  0  0  0  0  0  0  0  0  0
    0.0400  -16.8850   31.6752 C   0  0  0  0  0  0  0  0  0  0  0  0
   -1.0134  -17.1159   33.2082 S   0  0  0  0  0  0  0  0  0  0  0  0
   -1.7398  -18.7046   33.0345 C   0  0  0  0  0  0  0  0  0  0  0  0
   -1.6726  -19.6529   33.9413 N   0  0  0  0  0  0  0  0  0  0  0  0
   -2.0464  -20.7945   33.2797 C   0  0  0  0  0  0  0  0  0  0  0  0
   -2.0127  -22.1213   33.7288 C   0  0  0  0  0  0  0  0  0  0  0  0
   -2.2900  -23.1422   32.8178 C   0  0  0  0  0  0  0  0  0  0  0  0
   -2.6459  -22.8452   31.5016 C   0  0  0  0  0  0  0  0  0  0  0  0
   -2.7739  -21.5281   31.0599 C   0  0  0  0  0  0  0  0  0  0  0  0
   -2.4385  -20.5203   31.9698 C   0  0  0  0  0  0  0  0  0  0  0  0
   -2.4292  -19.1378   31.9206 N   0  0  0  0  0  0  0  0  0  0  0  0
   -3.1381  -18.3369   31.0172 C   0  0  0  0  0  0  0  0  0  0  0  0
   -2.9651  -18.4794   29.6406 C   0  0  0  0  0  0  0  0  0  0  0  0
   -3.7560  -17.7141   28.7928 C   0  0  0  0  0  0  0  0  0  0  0  0
   -4.6931  -16.8365   29.3392 C   0  0  0  0  0  0  0  0  0  0  0  0
   -4.7892  -16.6400   30.7089 C   0  0  0  0  0  0  0  0  0  0  0  0
   -4.0298  -17.4091   31.5595 C   0  0  0  0  0  0  0  0  0  0  0  0
    1.5353  -16.8847   32.0937 C   0  0  0  0  0  0  0  0  0  0  0  0
    1.9801  -17.9099   32.6088 O   0  0  0  0  0  0  0  0  0  0  0  0
    2.2990  -15.7214   31.9813 N   0  0  0  0  0  0  0  0  0  0  0  0
    3.2264  -15.1341   31.0005 C   0  0  0  0  0  0  0  0  0  0  0  0
    2.8380  -13.8595   30.0884 C   0  0  0  0  0  0  0  0  0  0  0  0
    2.7399  -14.8950   29.1117 C   0  0  0  0  0  0  0  0  0  0  0  0
    3.1456  -15.7948   30.3570 C   0  0  0  0  0  0  0  0  0  0  0  0
   -1.5080  -15.6397   30.7864 H   0  0  0  0  0  0  0  0  0  0  0  0
    0.0652  -15.5097   30.0272 H   0  0  0  0  0  0  0  0  0  0  0  0
   -0.2150  -14.7237   31.5857 H   0  0  0  0  0  0  0  0  0  0  0  0
   -0.0999  -17.7341   30.9981 H   0  0  0  0  0  0  0  0  0  0  0  0
   -1.7068  -22.3416   34.7459 H   0  0  0  0  0  0  0  0  0  0  0  0
   -2.1998  -24.1760   33.1426 H   0  0  0  0  0  0  0  0  0  0  0  0
   -2.8075  -23.6490   30.7906 H   0  0  0  0  0  0  0  0  0  0  0  0
   -3.0577  -21.3152   30.0375 H   0  0  0  0  0  0  0  0  0  0  0  0
   -2.2411  -19.1740   29.2251 H   0  0  0  0  0  0  0  0  0  0  0  0
   -3.6871  -17.8360   27.7162 H   0  0  0  0  0  0  0  0  0  0  0  0
   -5.3974  -16.3114   28.7095 H   0  0  0  0  0  0  0  0  0  0  0  0
   -5.4671  -15.9020   31.1195 H   0  0  0  0  0  0  0  0  0  0  0  0
   -4.1621  -17.2963   32.6342 H   0  0  0  0  0  0  0  0  0  0  0  0
    3.2821  -14.3051   31.8169 H   0  0  0  0  0  0  0  0  0  0  0  0
    4.4103  -15.1282   31.4038 H   0  0  0  0  0  0  0  0  0  0  0  0
    3.6680  -13.1639   29.9361 H   0  0  0  0  0  0  0  0  0  0  0  0
    1.9046  -13.3785   30.3866 H   0  0  0  0  0  0  0  0  0  0  0  0
    1.7402  -15.0739   28.7164 H   0  0  0  0  0  0  0  0  0  0  0  0
    3.5134  -14.8874   28.3404 H   0  0  0  0  0  0  0  0  0  0  0  0
    2.5023  -16.6893   29.9790 H   0  0  0  0  0  0  0  0  0  0  0  0
    4.0639  -16.5668   30.2356 H   0  0  0  0  0  0  0  0  0  0  0  0
  1  2  1  0
  2  3  1  0
  3  4  1  0
  4  5  2  0
  5  6  1  0
  6  7  2  0
  7  8  1  0
  8  9  2  0
  9 10  1  0
 10 11  2  0
 11 12  1  0
 12 13  1  0
 13 14  2  0
 14 15  1  0
 15 16  2  0
 16 17  1  0
 17 18  2  0
  2 19  1  0
 19 20  2  0
 19 21  1  0
 21 22  1  0
 22 23  1  0
 23 24  1  0
 24 25  1  0
 12  4  1  0
 18 13  1  0
 25 21  1  0
 11  6  1  0
  1 26  1  0
  1 27  1  0
  1 28  1  0
  2 29  1  0
  7 30  1  0
  8 31  1  0
  9 32  1  0
 10 33  1  0
 14 34  1  0
 15 35  1  0
 16 36  1  0
 17 37  1  0
 18 38  1  0
 22 39  1  0
 22 40  1  0
 23 41  1  0
 23 42  1  0
 24 43  1  0
 24 44  1  0
 25 45  1  0
 25 46  1  0
M  END
>  <Energy>  (1079) 
629.95010914692671

>  <compound_id>  (1079) 
9242

>  <target_id>  (1079) 
1

>  <reference_id>  (1079) 
20

>  <inspiration_ids>  (1079) 
[52, 20]

>  <energy_score>  (1079) 
515.2603085956266

>  <distance_score>  (1079) 
14.34418071288725

>  <path>  (1079) 
/opt/xchem-fragalysis-2/maxwin/BulkDock/SCRATCH/511020/C9242-P20/C9242-P20.minimised.mol

>  <scratch_subdir>  (1079) 
/opt/xchem-fragalysis-2/maxwin/BulkDock/SCRATCH/511020/C9242-P20

>  <fragmenstein_runtime>  (1079) 
66.19249415397644

>  <fragmenstein_outcome>  (1079) 
too moved

>  <fragmenstein_mode>  (1079) 
expansion

>  <fragmenstein_error>  (1079) 


$$$$
C77349-P52
     RDKit          3D

 37 39  0  0  0  0  0  0  0  0999 V2000
    4.2066  -14.9850   17.6150 C   0  0  0  0  0  0  0  0  0  0  0  0
    3.4860  -13.9432   18.4531 C   0  0  0  0  0  0  0  0  0  0  0  0
    1.5568  -14.1854   18.1978 S   0  0  0  0  0  0  0  0  0  0  0  0
    0.9077  -15.7792   18.8529 C   0  0  0  0  0  0  0  0  0  0  0  0
    1.6119  -16.8012   19.3184 N   0  0  0  0  0  0  0  0  0  0  0  0
    0.6913  -17.7984   19.6783 C   0  0  0  0  0  0  0  0  0  0  0  0
    0.8676  -19.0495   20.3161 C   0  0  0  0  0  0  0  0  0  0  0  0
   -0.2042  -19.9495   20.4296 C   0  0  0  0  0  0  0  0  0  0  0  0
   -1.4276  -19.6368   19.8509 C   0  0  0  0  0  0  0  0  0  0  0  0
   -1.6506  -18.3663   19.2805 C   0  0  0  0  0  0  0  0  0  0  0  0
   -0.5864  -17.4436   19.2771 C   0  0  0  0  0  0  0  0  0  0  0  0
   -0.4589  -16.0963   18.9534 N   0  0  0  0  0  0  0  0  0  0  0  0
   -1.5884  -15.2001   18.8545 C   0  0  0  0  0  0  0  0  0  0  0  0
    4.0117  -12.4091   18.2848 C   0  0  0  0  0  0  0  0  0  0  0  0
    3.5299  -11.4684   18.9299 O   0  0  0  0  0  0  0  0  0  0  0  0
    5.2277  -11.9959   17.4762 C   0  0  0  0  0  0  0  0  0  0  0  0
    5.4200  -12.3694   16.1468 C   0  0  0  0  0  0  0  0  0  0  0  0
    6.5163  -11.8786   15.4192 C   0  0  0  0  0  0  0  0  0  0  0  0
    7.4192  -10.9830   15.9997 C   0  0  0  0  0  0  0  0  0  0  0  0
    7.2235  -10.5690   17.3126 C   0  0  0  0  0  0  0  0  0  0  0  0
    6.1316  -11.0657   18.0398 C   0  0  0  0  0  0  0  0  0  0  0  0
    3.9569  -15.9984   17.9469 H   0  0  0  0  0  0  0  0  0  0  0  0
    5.2926  -14.8804   17.7057 H   0  0  0  0  0  0  0  0  0  0  0  0
    3.9445  -14.9104   16.5555 H   0  0  0  0  0  0  0  0  0  0  0  0
    3.6704  -14.1688   19.5088 H   0  0  0  0  0  0  0  0  0  0  0  0
    1.8473  -19.3013   20.7091 H   0  0  0  0  0  0  0  0  0  0  0  0
   -0.0525  -20.9068   20.9176 H   0  0  0  0  0  0  0  0  0  0  0  0
   -2.2430  -20.3565   19.8878 H   0  0  0  0  0  0  0  0  0  0  0  0
   -2.6275  -18.1020   18.8884 H   0  0  0  0  0  0  0  0  0  0  0  0
   -1.6978  -14.9164   17.8045 H   0  0  0  0  0  0  0  0  0  0  0  0
   -1.3862  -14.3158   19.4633 H   0  0  0  0  0  0  0  0  0  0  0  0
   -2.5014  -15.6913   19.1947 H   0  0  0  0  0  0  0  0  0  0  0  0
    4.7095  -13.0157   15.6403 H   0  0  0  0  0  0  0  0  0  0  0  0
    6.6553  -12.1852   14.3840 H   0  0  0  0  0  0  0  0  0  0  0  0
    8.2599  -10.6052   15.4237 H   0  0  0  0  0  0  0  0  0  0  0  0
    7.8940   -9.8454   17.7673 H   0  0  0  0  0  0  0  0  0  0  0  0
    5.9662  -10.7066   19.0543 H   0  0  0  0  0  0  0  0  0  0  0  0
  1  2  1  0
  2  3  1  0
  3  4  1  0
  4  5  2  0
  5  6  1  0
  6  7  2  0
  7  8  1  0
  8  9  2  0
  9 10  1  0
 10 11  2  0
 11 12  1  0
 12 13  1  0
  2 14  1  0
 14 15  2  0
 14 16  1  0
 16 17  2  0
 17 18  1  0
 18 19  2  0
 19 20  1  0
 20 21  2  0
 12  4  1  0
 21 16  1  0
 11  6  1  0
  1 22  1  0
  1 23  1  0
  1 24  1  0
  2 25  1  0
  7 26  1  0
  8 27  1  0
  9 28  1  0
 10 29  1  0
 13 30  1  0
 13 31  1  0
 13 32  1  0
 17 33  1  0
 18 34  1  0
 19 35  1  0
 20 36  1  0
 21 37  1  0
M  END
>  <Energy>  (1080) 
87.195136414456712

>  <compound_id>  (1080) 
77349

>  <target_id>  (1080) 
1

>  <reference_id>  (1080) 
52

>  <inspiration_ids>  (1080) 
[52, 20]

>  <energy_score>  (1080) 
-0.013564724833486252

>  <distance_score>  (1080) 
15.814707321205896

>  <path>  (1080) 
/opt/xchem-fragalysis-2/maxwin/BulkDock/SCRATCH/511020/C77349-P52/C77349-P52.minimised.mol

>  <scratch_subdir>  (1080) 
/opt/xchem-fragalysis-2/maxwin/BulkDock/SCRATCH/511020/C77349-P52

>  <fragmenstein_runtime>  (1080) 
19.447410345077515

>  <fragmenstein_outcome>  (1080) 
too moved

>  <fragmenstein_mode>  (1080) 
expansion

>  <fragmenstein_error>  (1080) 


$$$$
C77349-P20
     RDKit          3D

 37 39  0  0  0  0  0  0  0  0999 V2000
    1.0309   -6.8201   25.9579 C   0  0  0  0  0  0  0  0  0  0  0  0
    0.4448   -7.0159   24.5703 C   0  0  0  0  0  0  0  0  0  0  0  0
   -1.5729   -6.8970   24.7281 S   0  0  0  0  0  0  0  0  0  0  0  0
   -2.3762   -8.1298   25.9134 C   0  0  0  0  0  0  0  0  0  0  0  0
   -2.0193   -8.3850   27.1685 N   0  0  0  0  0  0  0  0  0  0  0  0
   -2.9697   -9.2699   27.7121 C   0  0  0  0  0  0  0  0  0  0  0  0
   -3.0769   -9.8536   28.9970 C   0  0  0  0  0  0  0  0  0  0  0  0
   -4.1592  -10.6984   29.3103 C   0  0  0  0  0  0  0  0  0  0  0  0
   -5.1414  -10.9544   28.3602 C   0  0  0  0  0  0  0  0  0  0  0  0
   -5.0390  -10.4249   27.0654 C   0  0  0  0  0  0  0  0  0  0  0  0
   -3.9399   -9.5836   26.7717 C   0  0  0  0  0  0  0  0  0  0  0  0
   -3.5424   -8.8788   25.6319 N   0  0  0  0  0  0  0  0  0  0  0  0
   -4.2619   -9.0132   24.3873 C   0  0  0  0  0  0  0  0  0  0  0  0
    1.1574   -5.9660   23.5686 C   0  0  0  0  0  0  0  0  0  0  0  0
    0.7688   -4.8051   23.4229 O   0  0  0  0  0  0  0  0  0  0  0  0
    2.4464   -6.2974   22.7996 C   0  0  0  0  0  0  0  0  0  0  0  0
    3.0907   -7.5338   22.8588 C   0  0  0  0  0  0  0  0  0  0  0  0
    4.2530   -7.7705   22.1038 C   0  0  0  0  0  0  0  0  0  0  0  0
    4.7985   -6.7765   21.2831 C   0  0  0  0  0  0  0  0  0  0  0  0
    4.1892   -5.5298   21.2225 C   0  0  0  0  0  0  0  0  0  0  0  0
    3.0260   -5.2975   21.9740 C   0  0  0  0  0  0  0  0  0  0  0  0
    0.8547   -5.8003   26.3179 H   0  0  0  0  0  0  0  0  0  0  0  0
    2.1158   -6.9706   25.9427 H   0  0  0  0  0  0  0  0  0  0  0  0
    0.6102   -7.5139   26.6901 H   0  0  0  0  0  0  0  0  0  0  0  0
    0.6157   -7.9893   24.1295 H   0  0  0  0  0  0  0  0  0  0  0  0
   -2.3188   -9.6342   29.7428 H   0  0  0  0  0  0  0  0  0  0  0  0
   -4.2313  -11.1278   30.3064 H   0  0  0  0  0  0  0  0  0  0  0  0
   -6.0030  -11.5609   28.6273 H   0  0  0  0  0  0  0  0  0  0  0  0
   -5.8082  -10.6284   26.3271 H   0  0  0  0  0  0  0  0  0  0  0  0
   -3.5891   -8.7962   23.5550 H   0  0  0  0  0  0  0  0  0  0  0  0
   -5.0918   -8.3025   24.3971 H   0  0  0  0  0  0  0  0  0  0  0  0
   -4.6324  -10.0347   24.2846 H   0  0  0  0  0  0  0  0  0  0  0  0
    2.7087   -8.3394   23.4792 H   0  0  0  0  0  0  0  0  0  0  0  0
    4.7347   -8.7456   22.1524 H   0  0  0  0  0  0  0  0  0  0  0  0
    5.6886   -6.9838   20.6948 H   0  0  0  0  0  0  0  0  0  0  0  0
    4.5980   -4.7437   20.5928 H   0  0  0  0  0  0  0  0  0  0  0  0
    2.5536   -4.3173   21.9068 H   0  0  0  0  0  0  0  0  0  0  0  0
  1  2  1  0
  2  3  1  0
  3  4  1  0
  4  5  2  0
  5  6  1  0
  6  7  2  0
  7  8  1  0
  8  9  2  0
  9 10  1  0
 10 11  2  0
 11 12  1  0
 12 13  1  0
  2 14  1  0
 14 15  2  0
 14 16  1  0
 16 17  2  0
 17 18  1  0
 18 19  2  0
 19 20  1  0
 20 21  2  0
 12  4  1  0
 21 16  1  0
 11  6  1  0
  1 22  1  0
  1 23  1  0
  1 24  1  0
  2 25  1  0
  7 26  1  0
  8 27  1  0
  9 28  1  0
 10 29  1  0
 13 30  1  0
 13 31  1  0
 13 32  1  0
 17 33  1  0
 18 34  1  0
 19 35  1  0
 20 36  1  0
 21 37  1  0
M  END
>  <Energy>  (1081) 
92.932142097124

>  <compound_id>  (1081) 
77349

>  <target_id>  (1081) 
1

>  <reference_id>  (1081) 
20

>  <inspiration_ids>  (1081) 
[52, 20]

>  <energy_score>  (1081) 
5.723440957832793

>  <distance_score>  (1081) 
15.350613837989

>  <path>  (1081) 
/opt/xchem-fragalysis-2/maxwin/BulkDock/SCRATCH/511020/C77349-P20/C77349-P20.minimised.mol

>  <scratch_subdir>  (1081) 
/opt/xchem-fragalysis-2/maxwin/BulkDock/SCRATCH/511020/C77349-P20

>  <fragmenstein_runtime>  (1081) 
14.971709728240967

>  <fragmenstein_outcome>  (1081) 
too moved

>  <fragmenstein_mode>  (1081) 
expansion

>  <fragmenstein_error>  (1081) 


$$$$
C50598-P52
     RDKit          3D

 44 47  0  0  0  0  0  0  0  0999 V2000
   -1.4406  -19.9189   19.2599 C   0  0  0  0  0  0  0  0  0  0  0  0
   -2.5929  -19.8641   18.2601 C   0  0  0  0  0  0  0  0  0  0  0  0
   -4.3445  -19.8434   18.8932 S   0  0  0  0  0  0  0  0  0  0  0  0
   -4.4662  -20.9478   20.2471 C   0  0  0  0  0  0  0  0  0  0  0  0
   -3.4269  -21.4805   20.8525 N   0  0  0  0  0  0  0  0  0  0  0  0
   -3.9196  -22.1007   21.9592 C   0  0  0  0  0  0  0  0  0  0  0  0
   -3.2117  -22.6354   23.0420 C   0  0  0  0  0  0  0  0  0  0  0  0
   -3.9320  -23.1070   24.1249 C   0  0  0  0  0  0  0  0  0  0  0  0
   -5.3188  -23.1044   24.0777 C   0  0  0  0  0  0  0  0  0  0  0  0
   -6.0466  -22.6843   22.9688 C   0  0  0  0  0  0  0  0  0  0  0  0
   -5.3047  -22.1181   21.9456 C   0  0  0  0  0  0  0  0  0  0  0  0
   -5.6633  -21.3339   20.8576 N   0  0  0  0  0  0  0  0  0  0  0  0
   -7.0014  -20.9478   20.5981 C   0  0  0  0  0  0  0  0  0  0  0  0
   -7.9785  -21.9380   20.4560 C   0  0  0  0  0  0  0  0  0  0  0  0
   -9.2976  -21.5795   20.1870 C   0  0  0  0  0  0  0  0  0  0  0  0
   -9.6475  -20.2408   20.0980 C   0  0  0  0  0  0  0  0  0  0  0  0
   -8.6820  -19.2519   20.2921 C   0  0  0  0  0  0  0  0  0  0  0  0
   -7.3539  -19.6012   20.5341 C   0  0  0  0  0  0  0  0  0  0  0  0
   -2.4388  -18.7034   17.1875 C   0  0  0  0  0  0  0  0  0  0  0  0
   -3.1995  -18.7161   16.2469 O   0  0  0  0  0  0  0  0  0  0  0  0
   -1.3361  -17.8586   17.4668 N   0  0  0  0  0  0  0  0  0  0  0  0
   -0.6966  -16.7964   16.6541 C   0  0  0  0  0  0  0  0  0  0  0  0
    0.1627  -15.8757   17.4654 C   0  0  0  0  0  0  0  0  0  0  0  0
   -0.7558  -15.7434   18.5021 N   0  0  0  0  0  0  0  0  0  0  0  0
   -1.7723  -16.6670   18.2597 C   0  0  0  0  0  0  0  0  0  0  0  0
   -2.8659  -16.5744   18.8047 O   0  0  0  0  0  0  0  0  0  0  0  0
   -1.4096  -19.0486   19.9149 H   0  0  0  0  0  0  0  0  0  0  0  0
   -0.4815  -19.9410   18.7272 H   0  0  0  0  0  0  0  0  0  0  0  0
   -1.4477  -20.8252   19.8655 H   0  0  0  0  0  0  0  0  0  0  0  0
   -2.5219  -20.7882   17.6707 H   0  0  0  0  0  0  0  0  0  0  0  0
   -2.1288  -22.6004   23.0479 H   0  0  0  0  0  0  0  0  0  0  0  0
   -3.3997  -23.4364   25.0066 H   0  0  0  0  0  0  0  0  0  0  0  0
   -5.8899  -23.3395   24.9579 H   0  0  0  0  0  0  0  0  0  0  0  0
   -7.1302  -22.6256   22.9960 H   0  0  0  0  0  0  0  0  0  0  0  0
   -7.7233  -22.9942   20.5055 H   0  0  0  0  0  0  0  0  0  0  0  0
  -10.0476  -22.3494   20.0292 H   0  0  0  0  0  0  0  0  0  0  0  0
  -10.6699  -19.9801   19.8485 H   0  0  0  0  0  0  0  0  0  0  0  0
   -8.9466  -18.2002   20.2261 H   0  0  0  0  0  0  0  0  0  0  0  0
   -6.6159  -18.8162   20.6814 H   0  0  0  0  0  0  0  0  0  0  0  0
   -0.0765  -17.3170   15.9126 H   0  0  0  0  0  0  0  0  0  0  0  0
   -1.4571  -16.2692   16.0478 H   0  0  0  0  0  0  0  0  0  0  0  0
    0.3708  -14.9205   16.9797 H   0  0  0  0  0  0  0  0  0  0  0  0
    1.0757  -16.3424   17.8437 H   0  0  0  0  0  0  0  0  0  0  0  0
   -1.0117  -14.8889   18.9905 H   0  0  0  0  0  0  0  0  0  0  0  0
  1  2  1  0
  2  3  1  0
  3  4  1  0
  4  5  2  0
  5  6  1  0
  6  7  2  0
  7  8  1  0
  8  9  2  0
  9 10  1  0
 10 11  2  0
 11 12  1  0
 12 13  1  0
 13 14  2  0
 14 15  1  0
 15 16  2  0
 16 17  1  0
 17 18  2  0
  2 19  1  0
 19 20  2  0
 19 21  1  0
 21 22  1  0
 22 23  1  0
 23 24  1  0
 24 25  1  0
 25 26  2  0
 12  4  1  0
 18 13  1  0
 25 21  1  0
 11  6  1  0
  1 27  1  0
  1 28  1  0
  1 29  1  0
  2 30  1  0
  7 31  1  0
  8 32  1  0
  9 33  1  0
 10 34  1  0
 14 35  1  0
 15 36  1  0
 16 37  1  0
 17 38  1  0
 18 39  1  0
 22 40  1  0
 22 41  1  0
 23 42  1  0
 23 43  1  0
 24 44  1  0
M  END
>  <Energy>  (1082) 
81.946267138108425

>  <compound_id>  (1082) 
50598

>  <target_id>  (1082) 
1

>  <reference_id>  (1082) 
52

>  <inspiration_ids>  (1082) 
[52, 20]

>  <energy_score>  (1082) 
6.197546715349631

>  <distance_score>  (1082) 
15.184578071997418

>  <path>  (1082) 
/opt/xchem-fragalysis-2/maxwin/BulkDock/SCRATCH/511020/C50598-P52/C50598-P52.minimised.mol

>  <scratch_subdir>  (1082) 
/opt/xchem-fragalysis-2/maxwin/BulkDock/SCRATCH/511020/C50598-P52

>  <fragmenstein_runtime>  (1082) 
33.726555824279785

>  <fragmenstein_outcome>  (1082) 
too moved

>  <fragmenstein_mode>  (1082) 
expansion

>  <fragmenstein_error>  (1082) 


$$$$
C50598-P20
     RDKit          3D

 44 47  0  0  0  0  0  0  0  0999 V2000
    1.0570  -11.5862   22.9057 C   0  0  0  0  0  0  0  0  0  0  0  0
   -0.3231  -13.0871   22.7628 C   0  0  0  0  0  0  0  0  0  0  0  0
   -1.2747  -14.8805   24.3255 S   0  0  0  0  0  0  0  0  0  0  0  0
   -2.4526  -16.7430   25.2999 C   0  0  0  0  0  0  0  0  0  0  0  0
   -2.2257  -17.2218   26.8758 N   0  0  0  0  0  0  0  0  0  0  0  0
   -1.4963  -18.8420   27.2013 C   0  0  0  0  0  0  0  0  0  0  0  0
   -0.4114  -19.9302   27.9982 C   0  0  0  0  0  0  0  0  0  0  0  0
    0.8393  -19.9692   28.5791 C   0  0  0  0  0  0  0  0  0  0  0  0
    1.4723  -18.8509   28.2881 C   0  0  0  0  0  0  0  0  0  0  0  0
    0.8162  -18.0387   27.3644 C   0  0  0  0  0  0  0  0  0  0  0  0
   -0.5176  -18.3066   26.5793 C   0  0  0  0  0  0  0  0  0  0  0  0
   -1.8952  -18.3875   25.7072 N   0  0  0  0  0  0  0  0  0  0  0  0
   -2.8425  -20.0043   25.6959 C   0  0  0  0  0  0  0  0  0  0  0  0
   -3.4265  -20.6256   26.8420 C   0  0  0  0  0  0  0  0  0  0  0  0
   -4.0800  -21.8798   26.8399 C   0  0  0  0  0  0  0  0  0  0  0  0
   -4.2024  -22.6246   25.6849 C   0  0  0  0  0  0  0  0  0  0  0  0
   -3.6425  -22.1294   24.5319 C   0  0  0  0  0  0  0  0  0  0  0  0
   -2.9657  -20.8939   24.5514 C   0  0  0  0  0  0  0  0  0  0  0  0
   -1.3154  -11.6096   21.5772 C   0  0  0  0  0  0  0  0  0  0  0  0
   -1.2896  -10.5221   22.1284 O   0  0  0  0  0  0  0  0  0  0  0  0
   -2.0207  -11.9185   20.3473 N   0  0  0  0  0  0  0  0  0  0  0  0
   -2.9387  -11.1207   19.5113 C   0  0  0  0  0  0  0  0  0  0  0  0
   -3.0758  -11.6926   18.1371 C   0  0  0  0  0  0  0  0  0  0  0  0
   -1.7309  -11.9671   17.9093 N   0  0  0  0  0  0  0  0  0  0  0  0
   -1.1243  -11.6843   19.1179 C   0  0  0  0  0  0  0  0  0  0  0  0
   -0.0162  -11.1589   19.1210 O   0  0  0  0  0  0  0  0  0  0  0  0
    1.6365  -11.3435   21.9980 H   0  0  0  0  0  0  0  0  0  0  0  0
    1.8571  -11.8247   23.6309 H   0  0  0  0  0  0  0  0  0  0  0  0
    0.6397  -10.5901   23.0231 H   0  0  0  0  0  0  0  0  0  0  0  0
   -0.1141  -14.0387   22.2690 H   0  0  0  0  0  0  0  0  0  0  0  0
   -1.0010  -20.8496   28.2798 H   0  0  0  0  0  0  0  0  0  0  0  0
    1.2103  -20.7669   29.1998 H   0  0  0  0  0  0  0  0  0  0  0  0
    2.4293  -18.5773   28.7143 H   0  0  0  0  0  0  0  0  0  0  0  0
    1.3801  -17.1104   27.3251 H   0  0  0  0  0  0  0  0  0  0  0  0
   -3.4636  -20.1129   27.7781 H   0  0  0  0  0  0  0  0  0  0  0  0
   -4.5178  -22.2540   27.7521 H   0  0  0  0  0  0  0  0  0  0  0  0
   -4.7274  -23.5713   25.6746 H   0  0  0  0  0  0  0  0  0  0  0  0
   -3.6857  -22.7056   23.6109 H   0  0  0  0  0  0  0  0  0  0  0  0
   -2.4181  -20.7014   23.6268 H   0  0  0  0  0  0  0  0  0  0  0  0
   -2.6413  -10.0559   19.5224 H   0  0  0  0  0  0  0  0  0  0  0  0
   -3.9130  -11.1317   20.0140 H   0  0  0  0  0  0  0  0  0  0  0  0
   -3.6408  -12.6290   18.1152 H   0  0  0  0  0  0  0  0  0  0  0  0
   -3.4739  -10.9854   17.4059 H   0  0  0  0  0  0  0  0  0  0  0  0
   -1.2356  -11.5904   17.1076 H   0  0  0  0  0  0  0  0  0  0  0  0
  1  2  1  0
  2  3  1  0
  3  4  1  0
  4  5  2  0
  5  6  1  0
  6  7  2  0
  7  8  1  0
  8  9  2  0
  9 10  1  0
 10 11  2  0
 11 12  1  0
 12 13  1  0
 13 14  2  0
 14 15  1  0
 15 16  2  0
 16 17  1  0
 17 18  2  0
  2 19  1  0
 19 20  2  0
 19 21  1  0
 21 22  1  0
 22 23  1  0
 23 24  1  0
 24 25  1  0
 25 26  2  0
 12  4  1  0
 18 13  1  0
 25 21  1  0
 11  6  1  0
  1 27  1  0
  1 28  1  0
  1 29  1  0
  2 30  1  0
  7 31  1  0
  8 32  1  0
  9 33  1  0
 10 34  1  0
 14 35  1  0
 15 36  1  0
 16 37  1  0
 17 38  1  0
 18 39  1  0
 22 40  1  0
 22 41  1  0
 23 42  1  0
 23 43  1  0
 24 44  1  0
M  END
>  <Energy>  (1083) 
1229.5499206142688

>  <compound_id>  (1083) 
50598

>  <target_id>  (1083) 
1

>  <reference_id>  (1083) 
20

>  <inspiration_ids>  (1083) 
[52, 20]

>  <energy_score>  (1083) 
1153.8012001914942

>  <distance_score>  (1083) 
13.84871829380625

>  <path>  (1083) 
/opt/xchem-fragalysis-2/maxwin/BulkDock/SCRATCH/511020/C50598-P20/C50598-P20.minimised.mol

>  <scratch_subdir>  (1083) 
/opt/xchem-fragalysis-2/maxwin/BulkDock/SCRATCH/511020/C50598-P20

>  <fragmenstein_runtime>  (1083) 
25.060678958892822

>  <fragmenstein_outcome>  (1083) 
too moved

>  <fragmenstein_mode>  (1083) 
expansion

>  <fragmenstein_error>  (1083) 


$$$$
C77350-P52
     RDKit          3D

 39 41  0  0  0  0  0  0  0  0999 V2000
    3.1130  -12.8110   26.5001 C   0  0  0  0  0  0  0  0  0  0  0  0
    3.5539  -14.2183   26.3832 C   0  0  0  0  0  0  0  0  0  0  0  0
    4.0600  -13.4025   24.7935 O   0  0  0  0  0  0  0  0  0  0  0  0
    4.8202  -12.8099   23.7498 C   0  0  0  0  0  0  0  0  0  0  0  0
    6.2182  -12.6839   23.5747 C   0  0  0  0  0  0  0  0  0  0  0  0
    6.8205  -11.8965   22.5548 C   0  0  0  0  0  0  0  0  0  0  0  0
    6.0399  -11.2272   21.6264 C   0  0  0  0  0  0  0  0  0  0  0  0
    4.6652  -11.3873   21.7067 C   0  0  0  0  0  0  0  0  0  0  0  0
    4.0904  -12.1743   22.7300 C   0  0  0  0  0  0  0  0  0  0  0  0
    2.3563  -15.5698   26.1243 C   0  0  0  0  0  0  0  0  0  0  0  0
    2.7614  -16.3141   25.2201 O   0  0  0  0  0  0  0  0  0  0  0  0
    0.7904  -15.5954   26.9886 N   0  0  0  0  0  0  0  0  0  0  0  0
   -0.8363  -16.6765   26.6863 C   0  0  0  0  0  0  0  0  0  0  0  0
   -2.7963  -17.1117   26.6955 C   0  0  0  0  0  0  0  0  0  0  0  0
   -2.8376  -18.1993   25.3483 C   0  0  0  0  0  0  0  0  0  0  0  0
   -2.1617  -18.9631   24.3574 F   0  0  0  0  0  0  0  0  0  0  0  0
   -4.3639  -19.0526   24.9420 C   0  0  0  0  0  0  0  0  0  0  0  0
   -5.6105  -19.1769   25.5980 C   0  0  0  0  0  0  0  0  0  0  0  0
   -5.8250  -18.2880   26.6758 C   0  0  0  0  0  0  0  0  0  0  0  0
   -7.0486  -18.1086   27.3081 N   0  0  0  0  0  0  0  0  0  0  0  0
   -7.0283  -16.9401   27.9658 C   0  0  0  0  0  0  0  0  0  0  0  0
   -5.8157  -16.6214   28.3122 N   0  0  0  0  0  0  0  0  0  0  0  0
   -4.7354  -17.1865   27.2572 C   0  0  0  0  0  0  0  0  0  0  0  0
    2.1546  -12.9191   26.9920 H   0  0  0  0  0  0  0  0  0  0  0  0
    3.9776  -12.1850   26.6970 H   0  0  0  0  0  0  0  0  0  0  0  0
    2.6927  -12.2529   25.6731 H   0  0  0  0  0  0  0  0  0  0  0  0
    4.0448  -14.4412   27.3001 H   0  0  0  0  0  0  0  0  0  0  0  0
    6.9132  -13.1919   24.2334 H   0  0  0  0  0  0  0  0  0  0  0  0
    7.9044  -11.8401   22.5044 H   0  0  0  0  0  0  0  0  0  0  0  0
    6.4859  -10.6313   20.8383 H   0  0  0  0  0  0  0  0  0  0  0  0
    4.0164  -10.9135   20.9746 H   0  0  0  0  0  0  0  0  0  0  0  0
    3.0144  -12.2505   22.7326 H   0  0  0  0  0  0  0  0  0  0  0  0
    0.7980  -14.9068   27.7344 H   0  0  0  0  0  0  0  0  0  0  0  0
   -1.3618  -15.7293   26.8255 H   0  0  0  0  0  0  0  0  0  0  0  0
   -0.6985  -16.7720   25.6356 H   0  0  0  0  0  0  0  0  0  0  0  0
   -4.2635  -19.5776   24.0064 H   0  0  0  0  0  0  0  0  0  0  0  0
   -6.3953  -19.8131   25.2046 H   0  0  0  0  0  0  0  0  0  0  0  0
   -7.8843  -18.6111   27.0492 H   0  0  0  0  0  0  0  0  0  0  0  0
   -7.8824  -16.3015   28.1294 H   0  0  0  0  0  0  0  0  0  0  0  0
  1  2  1  0
  2  3  1  0
  3  4  1  0
  4  5  2  0
  5  6  1  0
  6  7  2  0
  7  8  1  0
  8  9  2  0
  2 10  1  0
 10 11  2  0
 10 12  1  0
 12 13  1  0
 13 14  1  0
 14 15  2  0
 15 16  1  0
 15 17  1  0
 17 18  2  0
 18 19  1  0
 19 20  1  0
 20 21  1  0
 21 22  2  0
 22 23  1  0
  9  4  1  0
 23 14  1  0
 23 19  2  0
  1 24  1  0
  1 25  1  0
  1 26  1  0
  2 27  1  0
  5 28  1  0
  6 29  1  0
  7 30  1  0
  8 31  1  0
  9 32  1  0
 12 33  1  0
 13 34  1  0
 13 35  1  0
 17 36  1  0
 18 37  1  0
 20 38  1  0
 21 39  1  0
M  END
>  <Energy>  (1084) 
815.74015591965326

>  <compound_id>  (1084) 
77350

>  <target_id>  (1084) 
1

>  <reference_id>  (1084) 
52

>  <inspiration_ids>  (1084) 
[52, 20]

>  <energy_score>  (1084) 
772.4285004279755

>  <distance_score>  (1084) 
12.459241289728142

>  <path>  (1084) 
/opt/xchem-fragalysis-2/maxwin/BulkDock/SCRATCH/511020/C77350-P52/C77350-P52.minimised.mol

>  <scratch_subdir>  (1084) 
/opt/xchem-fragalysis-2/maxwin/BulkDock/SCRATCH/511020/C77350-P52

>  <fragmenstein_runtime>  (1084) 
32.764622926712036

>  <fragmenstein_outcome>  (1084) 
too moved

>  <fragmenstein_mode>  (1084) 
expansion

>  <fragmenstein_error>  (1084) 


$$$$
C77350-P20
     RDKit          3D

 39 41  0  0  0  0  0  0  0  0999 V2000
    4.1630  -14.6040   25.6760 C   0  0  0  0  0  0  0  0  0  0  0  0
    3.6385  -14.9786   27.3070 C   0  0  0  0  0  0  0  0  0  0  0  0
    4.6084  -13.4798   27.8642 O   0  0  0  0  0  0  0  0  0  0  0  0
    5.6952  -12.4749   27.4711 C   0  0  0  0  0  0  0  0  0  0  0  0
    5.6558  -11.2103   28.1195 C   0  0  0  0  0  0  0  0  0  0  0  0
    6.4628  -10.1146   27.7176 C   0  0  0  0  0  0  0  0  0  0  0  0
    7.4230  -10.2650   26.7270 C   0  0  0  0  0  0  0  0  0  0  0  0
    7.6378  -11.5379   26.2291 C   0  0  0  0  0  0  0  0  0  0  0  0
    6.8182  -12.6143   26.6287 C   0  0  0  0  0  0  0  0  0  0  0  0
    1.9979  -16.1538   27.9280 C   0  0  0  0  0  0  0  0  0  0  0  0
    1.4511  -15.6213   28.7595 O   0  0  0  0  0  0  0  0  0  0  0  0
    1.2229  -17.6061   27.3991 N   0  0  0  0  0  0  0  0  0  0  0  0
   -0.4871  -18.4404   27.8647 C   0  0  0  0  0  0  0  0  0  0  0  0
   -0.6567  -20.2259   28.9939 C   0  0  0  0  0  0  0  0  0  0  0  0
   -0.4248  -21.8455   28.6718 C   0  0  0  0  0  0  0  0  0  0  0  0
    0.3776  -22.2707   27.6765 F   0  0  0  0  0  0  0  0  0  0  0  0
   -0.7832  -23.1606   29.1912 C   0  0  0  0  0  0  0  0  0  0  0  0
   -1.6255  -23.2980   30.2124 C   0  0  0  0  0  0  0  0  0  0  0  0
   -1.7187  -22.0981   30.8367 C   0  0  0  0  0  0  0  0  0  0  0  0
   -2.4850  -21.9301   31.9636 N   0  0  0  0  0  0  0  0  0  0  0  0
   -2.1851  -20.7337   32.4504 C   0  0  0  0  0  0  0  0  0  0  0  0
   -1.2923  -20.1430   31.6842 N   0  0  0  0  0  0  0  0  0  0  0  0
   -1.1042  -20.8350   30.4855 C   0  0  0  0  0  0  0  0  0  0  0  0
    4.9648  -13.8990   25.6862 H   0  0  0  0  0  0  0  0  0  0  0  0
    3.4802  -13.9871   25.1094 H   0  0  0  0  0  0  0  0  0  0  0  0
    4.4765  -15.3361   24.9496 H   0  0  0  0  0  0  0  0  0  0  0  0
    2.8412  -14.2045   27.2196 H   0  0  0  0  0  0  0  0  0  0  0  0
    4.9355  -11.0440   28.9174 H   0  0  0  0  0  0  0  0  0  0  0  0
    6.3315   -9.1520   28.2063 H   0  0  0  0  0  0  0  0  0  0  0  0
    8.0525   -9.4333   26.4280 H   0  0  0  0  0  0  0  0  0  0  0  0
    8.4771  -11.7252   25.5624 H   0  0  0  0  0  0  0  0  0  0  0  0
    7.2282  -13.5820   26.3860 H   0  0  0  0  0  0  0  0  0  0  0  0
    1.8196  -18.0356   26.7403 H   0  0  0  0  0  0  0  0  0  0  0  0
   -0.7181  -18.8816   26.8462 H   0  0  0  0  0  0  0  0  0  0  0  0
   -1.3023  -17.7525   27.5065 H   0  0  0  0  0  0  0  0  0  0  0  0
   -0.4252  -24.0460   28.6672 H   0  0  0  0  0  0  0  0  0  0  0  0
   -2.0235  -24.2315   30.5739 H   0  0  0  0  0  0  0  0  0  0  0  0
   -3.0847  -22.6194   32.3925 H   0  0  0  0  0  0  0  0  0  0  0  0
   -2.6213  -20.3512   33.3641 H   0  0  0  0  0  0  0  0  0  0  0  0
  1  2  1  0
  2  3  1  0
  3  4  1  0
  4  5  2  0
  5  6  1  0
  6  7  2  0
  7  8  1  0
  8  9  2  0
  2 10  1  0
 10 11  2  0
 10 12  1  0
 12 13  1  0
 13 14  1  0
 14 15  2  0
 15 16  1  0
 15 17  1  0
 17 18  2  0
 18 19  1  0
 19 20  1  0
 20 21  1  0
 21 22  2  0
 22 23  1  0
  9  4  1  0
 23 14  1  0
 23 19  2  0
  1 24  1  0
  1 25  1  0
  1 26  1  0
  2 27  1  0
  5 28  1  0
  6 29  1  0
  7 30  1  0
  8 31  1  0
  9 32  1  0
 12 33  1  0
 13 34  1  0
 13 35  1  0
 17 36  1  0
 18 37  1  0
 20 38  1  0
 21 39  1  0
M  END
>  <Energy>  (1085) 
694.41884758731624

>  <compound_id>  (1085) 
77350

>  <target_id>  (1085) 
1

>  <reference_id>  (1085) 
20

>  <inspiration_ids>  (1085) 
[52, 20]

>  <energy_score>  (1085) 
651.1071920956232

>  <distance_score>  (1085) 
13.455892309067618

>  <path>  (1085) 
/opt/xchem-fragalysis-2/maxwin/BulkDock/SCRATCH/511020/C77350-P20/C77350-P20.minimised.mol

>  <scratch_subdir>  (1085) 
/opt/xchem-fragalysis-2/maxwin/BulkDock/SCRATCH/511020/C77350-P20

>  <fragmenstein_runtime>  (1085) 
28.35209608078003

>  <fragmenstein_outcome>  (1085) 
too moved

>  <fragmenstein_mode>  (1085) 
expansion

>  <fragmenstein_error>  (1085) 


$$$$
C77351-P52
     RDKit          3D

 39 41  0  0  0  0  0  0  0  0999 V2000
    2.4783  -17.9944   19.1306 C   0  0  0  0  0  0  0  0  0  0  0  0
    3.1145  -17.8628   20.4403 N   0  0  0  0  0  0  0  0  0  0  0  0
    2.9014  -19.2178   21.2143 C   0  0  0  0  0  0  0  0  0  0  0  0
    1.4969  -19.9095   21.6894 C   0  0  0  0  0  0  0  0  0  0  0  0
    1.4408  -21.0805   22.3425 N   0  0  0  0  0  0  0  0  0  0  0  0
    0.1258  -21.3123   22.7194 C   0  0  0  0  0  0  0  0  0  0  0  0
   -0.4447  -22.3534   23.4940 C   0  0  0  0  0  0  0  0  0  0  0  0
   -1.8253  -22.3645   23.7538 C   0  0  0  0  0  0  0  0  0  0  0  0
   -2.6347  -21.3696   23.2156 C   0  0  0  0  0  0  0  0  0  0  0  0
   -2.0834  -20.3417   22.4257 C   0  0  0  0  0  0  0  0  0  0  0  0
   -0.6893  -20.3071   22.2277 C   0  0  0  0  0  0  0  0  0  0  0  0
    0.1973  -19.4078   21.6295 N   0  0  0  0  0  0  0  0  0  0  0  0
    4.5961  -17.4885   20.3008 C   0  0  0  0  0  0  0  0  0  0  0  0
    5.3569  -17.5366   21.6658 C   0  0  0  0  0  0  0  0  0  0  0  0
    4.8920  -17.2948   22.7703 O   0  0  0  0  0  0  0  0  0  0  0  0
    6.6810  -17.8256   21.5196 O   0  0  0  0  0  0  0  0  0  0  0  0
    4.9660  -16.1167   19.5947 C   0  0  0  0  0  0  0  0  0  0  0  0
    5.2279  -16.0804   18.2122 C   0  0  0  0  0  0  0  0  0  0  0  0
    5.6538  -14.9051   17.5706 C   0  0  0  0  0  0  0  0  0  0  0  0
    5.8455  -13.7254   18.2900 C   0  0  0  0  0  0  0  0  0  0  0  0
    5.5971  -13.7244   19.6576 C   0  0  0  0  0  0  0  0  0  0  0  0
    5.1608  -14.9026   20.2994 C   0  0  0  0  0  0  0  0  0  0  0  0
    1.4202  -18.2548   19.2356 H   0  0  0  0  0  0  0  0  0  0  0  0
    2.9601  -18.7596   18.5121 H   0  0  0  0  0  0  0  0  0  0  0  0
    2.4970  -17.0440   18.5884 H   0  0  0  0  0  0  0  0  0  0  0  0
    3.4099  -19.9989   20.6319 H   0  0  0  0  0  0  0  0  0  0  0  0
    3.4376  -19.1355   22.1652 H   0  0  0  0  0  0  0  0  0  0  0  0
    0.2008  -23.1336   23.8821 H   0  0  0  0  0  0  0  0  0  0  0  0
   -2.2603  -23.1609   24.3504 H   0  0  0  0  0  0  0  0  0  0  0  0
   -3.7080  -21.3910   23.3918 H   0  0  0  0  0  0  0  0  0  0  0  0
   -2.7263  -19.6040   21.9716 H   0  0  0  0  0  0  0  0  0  0  0  0
   -0.0165  -18.4710   21.3214 H   0  0  0  0  0  0  0  0  0  0  0  0
    5.0471  -18.2890   19.6953 H   0  0  0  0  0  0  0  0  0  0  0  0
    6.9782  -17.8754   20.5911 H   0  0  0  0  0  0  0  0  0  0  0  0
    5.1059  -16.9802   17.6110 H   0  0  0  0  0  0  0  0  0  0  0  0
    5.8429  -14.9156   16.4990 H   0  0  0  0  0  0  0  0  0  0  0  0
    6.1786  -12.8208   17.7890 H   0  0  0  0  0  0  0  0  0  0  0  0
    5.7381  -12.8158   20.2385 H   0  0  0  0  0  0  0  0  0  0  0  0
    4.9857  -14.8618   21.3761 H   0  0  0  0  0  0  0  0  0  0  0  0
  1  2  1  0
  2  3  1  0
  3  4  1  0
  4  5  2  0
  5  6  1  0
  6  7  2  0
  7  8  1  0
  8  9  2  0
  9 10  1  0
 10 11  2  0
 11 12  1  0
  2 13  1  0
 13 14  1  0
 14 15  2  0
 14 16  1  0
 13 17  1  0
 17 18  2  0
 18 19  1  0
 19 20  2  0
 20 21  1  0
 21 22  2  0
 12  4  1  0
 22 17  1  0
 11  6  1  0
  1 23  1  0
  1 24  1  0
  1 25  1  0
  3 26  1  0
  3 27  1  0
  7 28  1  0
  8 29  1  0
  9 30  1  0
 10 31  1  0
 12 32  1  0
 13 33  1  0
 16 34  1  0
 18 35  1  0
 19 36  1  0
 20 37  1  0
 21 38  1  0
 22 39  1  0
M  END
>  <Energy>  (1086) 
115.14993332472807

>  <compound_id>  (1086) 
77351

>  <target_id>  (1086) 
1

>  <reference_id>  (1086) 
52

>  <inspiration_ids>  (1086) 
[52, 20]

>  <energy_score>  (1086) 
-5.934095854177713

>  <distance_score>  (1086) 
15.518654383309002

>  <path>  (1086) 
/opt/xchem-fragalysis-2/maxwin/BulkDock/SCRATCH/511020/C77351-P52/C77351-P52.minimised.mol

>  <scratch_subdir>  (1086) 
/opt/xchem-fragalysis-2/maxwin/BulkDock/SCRATCH/511020/C77351-P52

>  <fragmenstein_runtime>  (1086) 
22.10623788833618

>  <fragmenstein_outcome>  (1086) 
too moved

>  <fragmenstein_mode>  (1086) 
expansion

>  <fragmenstein_error>  (1086) 


$$$$
C77351-P20
     RDKit          3D

 39 41  0  0  0  0  0  0  0  0999 V2000
    3.6402  -14.1680   24.2332 C   0  0  0  0  0  0  0  0  0  0  0  0
    2.2218  -13.5849   23.7538 N   0  0  0  0  0  0  0  0  0  0  0  0
    0.3421  -14.3614   24.1818 C   0  0  0  0  0  0  0  0  0  0  0  0
   -1.2431  -15.8036   24.5082 C   0  0  0  0  0  0  0  0  0  0  0  0
   -0.9952  -17.4649   25.4451 N   0  0  0  0  0  0  0  0  0  0  0  0
   -1.6481  -18.2383   26.6851 C   0  0  0  0  0  0  0  0  0  0  0  0
   -1.9452  -19.7976   27.2235 C   0  0  0  0  0  0  0  0  0  0  0  0
   -2.6783  -21.0395   27.1468 C   0  0  0  0  0  0  0  0  0  0  0  0
   -3.3802  -21.1546   26.0503 C   0  0  0  0  0  0  0  0  0  0  0  0
   -3.2443  -19.9823   25.3518 C   0  0  0  0  0  0  0  0  0  0  0  0
   -2.4402  -18.3488   25.6593 C   0  0  0  0  0  0  0  0  0  0  0  0
   -2.6416  -16.5890   25.2785 N   0  0  0  0  0  0  0  0  0  0  0  0
    3.2707  -12.7537   22.4021 C   0  0  0  0  0  0  0  0  0  0  0  0
    3.7042  -13.8228   21.2359 C   0  0  0  0  0  0  0  0  0  0  0  0
    4.1304  -14.9624   21.3661 O   0  0  0  0  0  0  0  0  0  0  0  0
    3.6548  -13.3053   19.9788 O   0  0  0  0  0  0  0  0  0  0  0  0
    4.6498  -11.8477   22.2838 C   0  0  0  0  0  0  0  0  0  0  0  0
    5.9539  -12.3269   22.5091 C   0  0  0  0  0  0  0  0  0  0  0  0
    7.0834  -11.5511   22.1882 C   0  0  0  0  0  0  0  0  0  0  0  0
    6.9565  -10.2920   21.5931 C   0  0  0  0  0  0  0  0  0  0  0  0
    5.6901   -9.7976   21.3161 C   0  0  0  0  0  0  0  0  0  0  0  0
    4.5602  -10.5661   21.6456 C   0  0  0  0  0  0  0  0  0  0  0  0
    3.7850  -14.3354   25.3063 H   0  0  0  0  0  0  0  0  0  0  0  0
    3.9259  -15.0454   23.6513 H   0  0  0  0  0  0  0  0  0  0  0  0
    4.4312  -13.4391   24.1180 H   0  0  0  0  0  0  0  0  0  0  0  0
   -0.1777  -13.9797   23.3007 H   0  0  0  0  0  0  0  0  0  0  0  0
    0.6432  -13.9021   25.1403 H   0  0  0  0  0  0  0  0  0  0  0  0
   -1.0781  -20.2739   27.7187 H   0  0  0  0  0  0  0  0  0  0  0  0
   -2.5019  -21.8641   27.8258 H   0  0  0  0  0  0  0  0  0  0  0  0
   -3.9638  -22.0030   25.7407 H   0  0  0  0  0  0  0  0  0  0  0  0
   -4.0106  -20.0078   24.5415 H   0  0  0  0  0  0  0  0  0  0  0  0
   -3.4111  -16.3162   24.7175 H   0  0  0  0  0  0  0  0  0  0  0  0
    2.6048  -11.9257   22.1237 H   0  0  0  0  0  0  0  0  0  0  0  0
    4.0189  -14.0276   19.4285 H   0  0  0  0  0  0  0  0  0  0  0  0
    6.1245  -13.3299   22.8951 H   0  0  0  0  0  0  0  0  0  0  0  0
    8.0763  -11.9542   22.3783 H   0  0  0  0  0  0  0  0  0  0  0  0
    7.8394   -9.7141   21.3334 H   0  0  0  0  0  0  0  0  0  0  0  0
    5.5709   -8.8318   20.8320 H   0  0  0  0  0  0  0  0  0  0  0  0
    3.5798  -10.1671   21.3807 H   0  0  0  0  0  0  0  0  0  0  0  0
  1  2  1  0
  2  3  1  0
  3  4  1  0
  4  5  2  0
  5  6  1  0
  6  7  2  0
  7  8  1  0
  8  9  2  0
  9 10  1  0
 10 11  2  0
 11 12  1  0
  2 13  1  0
 13 14  1  0
 14 15  2  0
 14 16  1  0
 13 17  1  0
 17 18  2  0
 18 19  1  0
 19 20  2  0
 20 21  1  0
 21 22  2  0
 12  4  1  0
 22 17  1  0
 11  6  1  0
  1 23  1  0
  1 24  1  0
  1 25  1  0
  3 26  1  0
  3 27  1  0
  7 28  1  0
  8 29  1  0
  9 30  1  0
 10 31  1  0
 12 32  1  0
 13 33  1  0
 16 34  1  0
 18 35  1  0
 19 36  1  0
 20 37  1  0
 21 38  1  0
 22 39  1  0
M  END
>  <Energy>  (1087) 
1155.0052323511495

>  <compound_id>  (1087) 
77351

>  <target_id>  (1087) 
1

>  <reference_id>  (1087) 
20

>  <inspiration_ids>  (1087) 
[52, 20]

>  <energy_score>  (1087) 
1033.9212031722345

>  <distance_score>  (1087) 
13.045247435344153

>  <path>  (1087) 
/opt/xchem-fragalysis-2/maxwin/BulkDock/SCRATCH/511020/C77351-P20/C77351-P20.minimised.mol

>  <scratch_subdir>  (1087) 
/opt/xchem-fragalysis-2/maxwin/BulkDock/SCRATCH/511020/C77351-P20

>  <fragmenstein_runtime>  (1087) 
26.932578086853027

>  <fragmenstein_outcome>  (1087) 
too moved

>  <fragmenstein_mode>  (1087) 
expansion

>  <fragmenstein_error>  (1087) 


$$$$
C77352-P52
     RDKit          3D

 36 38  0  0  0  0  0  0  0  0999 V2000
    2.5523  -12.5649   19.5138 O   0  0  0  0  0  0  0  0  0  0  0  0
    2.6440  -12.8003   20.7087 C   0  0  0  0  0  0  0  0  0  0  0  0
    3.8049  -13.2616   21.2204 O   0  0  0  0  0  0  0  0  0  0  0  0
    1.5259  -12.6714   21.7459 C   0  0  0  0  0  0  0  0  0  0  0  0
    1.7698  -11.6325   22.7979 N   0  0  0  0  0  0  0  0  0  0  0  0
    0.6853  -11.9807   24.3243 C   0  0  0  0  0  0  0  0  0  0  0  0
   -1.1082  -12.7988   23.8420 C   0  0  0  0  0  0  0  0  0  0  0  0
   -1.6849  -13.9400   23.4375 N   0  0  0  0  0  0  0  0  0  0  0  0
   -2.6882  -14.3828   24.4034 C   0  0  0  0  0  0  0  0  0  0  0  0
   -2.6089  -15.7892   25.1513 C   0  0  0  0  0  0  0  0  0  0  0  0
   -1.9397  -16.8729   24.8082 F   0  0  0  0  0  0  0  0  0  0  0  0
   -2.4491  -15.9938   26.4454 C   0  0  0  0  0  0  0  0  0  0  0  0
   -2.7978  -14.9176   27.0456 C   0  0  0  0  0  0  0  0  0  0  0  0
   -2.2888  -13.6723   26.7482 C   0  0  0  0  0  0  0  0  0  0  0  0
   -2.5134  -13.3463   25.3787 C   0  0  0  0  0  0  0  0  0  0  0  0
   -2.2257  -12.3266   24.5805 N   0  0  0  0  0  0  0  0  0  0  0  0
    1.8626  -10.3660   21.9006 C   0  0  0  0  0  0  0  0  0  0  0  0
    3.2175   -9.6896   21.6201 C   0  0  0  0  0  0  0  0  0  0  0  0
    4.5571  -10.0166   21.7652 C   0  0  0  0  0  0  0  0  0  0  0  0
    5.3245   -8.9804   21.1615 C   0  0  0  0  0  0  0  0  0  0  0  0
    4.4171   -8.0738   20.6753 C   0  0  0  0  0  0  0  0  0  0  0  0
    3.1495   -8.4840   20.9507 O   0  0  0  0  0  0  0  0  0  0  0  0
    4.4092  -13.2721   20.4493 H   0  0  0  0  0  0  0  0  0  0  0  0
    1.5475  -13.6363   22.1743 H   0  0  0  0  0  0  0  0  0  0  0  0
    0.5623  -12.5443   21.2410 H   0  0  0  0  0  0  0  0  0  0  0  0
    0.5462  -10.9773   24.8338 H   0  0  0  0  0  0  0  0  0  0  0  0
    1.1410  -12.3267   25.2649 H   0  0  0  0  0  0  0  0  0  0  0  0
   -2.5073  -17.0363   26.6589 H   0  0  0  0  0  0  0  0  0  0  0  0
   -3.6158  -14.9226   27.7513 H   0  0  0  0  0  0  0  0  0  0  0  0
   -2.1134  -13.0022   27.5616 H   0  0  0  0  0  0  0  0  0  0  0  0
   -2.6127  -11.3953   24.5384 H   0  0  0  0  0  0  0  0  0  0  0  0
    1.5962  -10.6607   20.8717 H   0  0  0  0  0  0  0  0  0  0  0  0
    1.0518   -9.6581   21.9579 H   0  0  0  0  0  0  0  0  0  0  0  0
    4.9261  -10.9166   22.2391 H   0  0  0  0  0  0  0  0  0  0  0  0
    6.3995   -8.9210   21.0870 H   0  0  0  0  0  0  0  0  0  0  0  0
    4.4964   -7.1395   20.1371 H   0  0  0  0  0  0  0  0  0  0  0  0
  1  2  2  0
  2  3  1  0
  2  4  1  0
  4  5  1  0
  5  6  1  0
  6  7  1  0
  7  8  2  0
  8  9  1  0
  9 10  2  0
 10 11  1  0
 10 12  1  0
 12 13  2  0
 13 14  1  0
 14 15  2  0
 15 16  1  0
  5 17  1  0
 17 18  1  0
 18 19  2  0
 19 20  1  0
 20 21  2  0
 21 22  1  0
 16  7  1  0
 22 18  1  0
 15  9  1  0
  3 23  1  0
  4 24  1  0
  4 25  1  0
  6 26  1  0
  6 27  1  0
 12 28  1  0
 13 29  1  0
 14 30  1  0
 16 31  1  0
 17 32  1  0
 17 33  1  0
 19 34  1  0
 20 35  1  0
 21 36  1  0
M  END
>  <Energy>  (1088) 
399.65818382124786

>  <compound_id>  (1088) 
77352

>  <target_id>  (1088) 
1

>  <reference_id>  (1088) 
52

>  <inspiration_ids>  (1088) 
[52, 20]

>  <energy_score>  (1088) 
296.1126897101442

>  <distance_score>  (1088) 
14.28717371852169

>  <path>  (1088) 
/opt/xchem-fragalysis-2/maxwin/BulkDock/SCRATCH/511020/C77352-P52/C77352-P52.minimised.mol

>  <scratch_subdir>  (1088) 
/opt/xchem-fragalysis-2/maxwin/BulkDock/SCRATCH/511020/C77352-P52

>  <fragmenstein_runtime>  (1088) 
18.422688245773315

>  <fragmenstein_outcome>  (1088) 
too moved

>  <fragmenstein_mode>  (1088) 
expansion

>  <fragmenstein_error>  (1088) 


$$$$
C77352-P20
     RDKit          3D

 36 38  0  0  0  0  0  0  0  0999 V2000
    2.0820  -12.8878   15.1141 O   0  0  0  0  0  0  0  0  0  0  0  0
    2.3568  -13.7171   15.9708 C   0  0  0  0  0  0  0  0  0  0  0  0
    3.3636  -14.5889   15.7642 O   0  0  0  0  0  0  0  0  0  0  0  0
    1.5730  -13.9335   17.2561 C   0  0  0  0  0  0  0  0  0  0  0  0
    2.4078  -14.3657   18.3987 N   0  0  0  0  0  0  0  0  0  0  0  0
    1.4590  -14.8744   19.5228 C   0  0  0  0  0  0  0  0  0  0  0  0
    0.4463  -16.1183   19.4880 C   0  0  0  0  0  0  0  0  0  0  0  0
    0.6705  -17.3513   19.9451 N   0  0  0  0  0  0  0  0  0  0  0  0
   -0.5547  -18.0141   20.0573 C   0  0  0  0  0  0  0  0  0  0  0  0
   -0.8938  -19.3091   20.5242 C   0  0  0  0  0  0  0  0  0  0  0  0
    0.0507  -20.1416   20.9874 F   0  0  0  0  0  0  0  0  0  0  0  0
   -2.2205  -19.7582   20.4863 C   0  0  0  0  0  0  0  0  0  0  0  0
   -3.2235  -18.9152   20.0061 C   0  0  0  0  0  0  0  0  0  0  0  0
   -2.9268  -17.6020   19.5925 C   0  0  0  0  0  0  0  0  0  0  0  0
   -1.5784  -17.1859   19.6196 C   0  0  0  0  0  0  0  0  0  0  0  0
   -0.9357  -15.9908   19.3141 N   0  0  0  0  0  0  0  0  0  0  0  0
    3.2290  -13.1873   18.9546 C   0  0  0  0  0  0  0  0  0  0  0  0
    4.1983  -12.3928   18.0836 C   0  0  0  0  0  0  0  0  0  0  0  0
    5.4838  -12.6033   17.6079 C   0  0  0  0  0  0  0  0  0  0  0  0
    5.9109  -11.4004   16.9781 C   0  0  0  0  0  0  0  0  0  0  0  0
    4.8659  -10.5192   17.1053 C   0  0  0  0  0  0  0  0  0  0  0  0
    3.8361  -11.0995   17.7809 O   0  0  0  0  0  0  0  0  0  0  0  0
    3.7616  -14.2968   14.9202 H   0  0  0  0  0  0  0  0  0  0  0  0
    0.8359  -14.7080   17.0139 H   0  0  0  0  0  0  0  0  0  0  0  0
    1.0305  -13.0114   17.4960 H   0  0  0  0  0  0  0  0  0  0  0  0
    0.8255  -14.0239   19.7987 H   0  0  0  0  0  0  0  0  0  0  0  0
    2.1325  -15.1406   20.3439 H   0  0  0  0  0  0  0  0  0  0  0  0
   -2.4485  -20.7670   20.8158 H   0  0  0  0  0  0  0  0  0  0  0  0
   -4.2508  -19.2710   19.9612 H   0  0  0  0  0  0  0  0  0  0  0  0
   -3.7093  -16.9384   19.2388 H   0  0  0  0  0  0  0  0  0  0  0  0
   -1.3972  -15.1345   19.0512 H   0  0  0  0  0  0  0  0  0  0  0  0
    3.8250  -13.5902   19.7839 H   0  0  0  0  0  0  0  0  0  0  0  0
    2.5276  -12.4652   19.3937 H   0  0  0  0  0  0  0  0  0  0  0  0
    6.0464  -13.5202   17.7211 H   0  0  0  0  0  0  0  0  0  0  0  0
    6.8583  -11.2103   16.4926 H   0  0  0  0  0  0  0  0  0  0  0  0
    4.6984   -9.4989   16.7901 H   0  0  0  0  0  0  0  0  0  0  0  0
  1  2  2  0
  2  3  1  0
  2  4  1  0
  4  5  1  0
  5  6  1  0
  6  7  1  0
  7  8  2  0
  8  9  1  0
  9 10  2  0
 10 11  1  0
 10 12  1  0
 12 13  2  0
 13 14  1  0
 14 15  2  0
 15 16  1  0
  5 17  1  0
 17 18  1  0
 18 19  2  0
 19 20  1  0
 20 21  2  0
 21 22  1  0
 16  7  1  0
 22 18  1  0
 15  9  1  0
  3 23  1  0
  4 24  1  0
  4 25  1  0
  6 26  1  0
  6 27  1  0
 12 28  1  0
 13 29  1  0
 14 30  1  0
 16 31  1  0
 17 32  1  0
 17 33  1  0
 19 34  1  0
 20 35  1  0
 21 36  1  0
M  END
>  <Energy>  (1089) 
89.796285013147155

>  <compound_id>  (1089) 
77352

>  <target_id>  (1089) 
1

>  <reference_id>  (1089) 
20

>  <inspiration_ids>  (1089) 
[52, 20]

>  <energy_score>  (1089) 
-13.749209097962591

>  <distance_score>  (1089) 
15.625719440397267

>  <path>  (1089) 
/opt/xchem-fragalysis-2/maxwin/BulkDock/SCRATCH/511020/C77352-P20/C77352-P20.minimised.mol

>  <scratch_subdir>  (1089) 
/opt/xchem-fragalysis-2/maxwin/BulkDock/SCRATCH/511020/C77352-P20

>  <fragmenstein_runtime>  (1089) 
17.936082363128662

>  <fragmenstein_outcome>  (1089) 
too moved

>  <fragmenstein_mode>  (1089) 
expansion

>  <fragmenstein_error>  (1089) 


$$$$
C77353-P52
     RDKit          3D

 39 41  0  0  0  0  0  0  0  0999 V2000
    3.9771   -9.7853   26.5794 O   0  0  0  0  0  0  0  0  0  0  0  0
    4.1236  -10.6798   25.7609 C   0  0  0  0  0  0  0  0  0  0  0  0
    5.1296  -10.5620   24.8568 O   0  0  0  0  0  0  0  0  0  0  0  0
    3.3180  -12.0075   25.5693 C   0  0  0  0  0  0  0  0  0  0  0  0
    1.7652  -11.9958   25.5810 N   0  0  0  0  0  0  0  0  0  0  0  0
    1.4241  -10.5158   25.2682 C   0  0  0  0  0  0  0  0  0  0  0  0
    2.1286   -9.7211   24.0803 C   0  0  0  0  0  0  0  0  0  0  0  0
    2.7258  -10.2823   22.9364 C   0  0  0  0  0  0  0  0  0  0  0  0
    3.3872   -9.4946   21.9673 C   0  0  0  0  0  0  0  0  0  0  0  0
    3.4502   -8.1129   22.1066 C   0  0  0  0  0  0  0  0  0  0  0  0
    2.8483   -7.5247   23.2158 C   0  0  0  0  0  0  0  0  0  0  0  0
    2.2021   -8.3139   24.1813 C   0  0  0  0  0  0  0  0  0  0  0  0
    0.9667  -13.3779   26.7094 C   0  0  0  0  0  0  0  0  0  0  0  0
   -0.8961  -13.7742   27.7263 C   0  0  0  0  0  0  0  0  0  0  0  0
   -0.7558  -13.4656   29.2526 N   0  0  0  0  0  0  0  0  0  0  0  0
   -1.9434  -12.9853   29.9269 C   0  0  0  0  0  0  0  0  0  0  0  0
   -2.4325  -12.7021   31.2316 C   0  0  0  0  0  0  0  0  0  0  0  0
   -3.7154  -12.2697   31.5661 C   0  0  0  0  0  0  0  0  0  0  0  0
   -4.2100  -12.1332   33.2061 Cl  0  0  0  0  0  0  0  0  0  0  0  0
   -4.4556  -11.7253   30.5808 C   0  0  0  0  0  0  0  0  0  0  0  0
   -3.8899  -11.7498   29.3194 C   0  0  0  0  0  0  0  0  0  0  0  0
   -2.8090  -12.6872   28.9371 C   0  0  0  0  0  0  0  0  0  0  0  0
   -2.1650  -13.2254   27.5905 N   0  0  0  0  0  0  0  0  0  0  0  0
    5.4638   -9.6554   25.0204 H   0  0  0  0  0  0  0  0  0  0  0  0
    3.6385  -12.7315   26.3045 H   0  0  0  0  0  0  0  0  0  0  0  0
    3.6424  -12.3806   24.5905 H   0  0  0  0  0  0  0  0  0  0  0  0
    0.3594  -10.3935   25.1488 H   0  0  0  0  0  0  0  0  0  0  0  0
    1.6447   -9.9199   26.1652 H   0  0  0  0  0  0  0  0  0  0  0  0
    2.7235  -11.3586   22.8031 H   0  0  0  0  0  0  0  0  0  0  0  0
    3.8509   -9.9777   21.1100 H   0  0  0  0  0  0  0  0  0  0  0  0
    3.9510   -7.5037   21.3600 H   0  0  0  0  0  0  0  0  0  0  0  0
    2.8834   -6.4451   23.3423 H   0  0  0  0  0  0  0  0  0  0  0  0
    1.7639   -7.8168   25.0468 H   0  0  0  0  0  0  0  0  0  0  0  0
    1.6771  -13.1963   27.4518 H   0  0  0  0  0  0  0  0  0  0  0  0
    1.4619  -14.4121   26.7540 H   0  0  0  0  0  0  0  0  0  0  0  0
   -1.8239  -12.6987   32.0923 H   0  0  0  0  0  0  0  0  0  0  0  0
   -5.3578  -11.1601   30.7829 H   0  0  0  0  0  0  0  0  0  0  0  0
   -4.3235  -11.0526   28.6020 H   0  0  0  0  0  0  0  0  0  0  0  0
   -2.5392  -13.1780   26.6644 H   0  0  0  0  0  0  0  0  0  0  0  0
  1  2  2  0
  2  3  1  0
  2  4  1  0
  4  5  1  0
  5  6  1  0
  6  7  1  0
  7  8  2  0
  8  9  1  0
  9 10  2  0
 10 11  1  0
 11 12  2  0
  5 13  1  0
 13 14  1  0
 14 15  2  0
 15 16  1  0
 16 17  2  0
 17 18  1  0
 18 19  1  0
 18 20  2  0
 20 21  1  0
 21 22  2  0
 22 23  1  0
 12  7  1  0
 23 14  1  0
 22 16  1  0
  3 24  1  0
  4 25  1  0
  4 26  1  0
  6 27  1  0
  6 28  1  0
  8 29  1  0
  9 30  1  0
 10 31  1  0
 11 32  1  0
 12 33  1  0
 13 34  1  0
 13 35  1  0
 17 36  1  0
 20 37  1  0
 21 38  1  0
 23 39  1  0
M  END
>  <Energy>  (1090) 
413.34823131899151

>  <compound_id>  (1090) 
77353

>  <target_id>  (1090) 
1

>  <reference_id>  (1090) 
52

>  <inspiration_ids>  (1090) 
[52, 20]

>  <energy_score>  (1090) 
330.7435693466816

>  <distance_score>  (1090) 
14.58178228506787

>  <path>  (1090) 
/opt/xchem-fragalysis-2/maxwin/BulkDock/SCRATCH/511020/C77353-P52/C77353-P52.minimised.mol

>  <scratch_subdir>  (1090) 
/opt/xchem-fragalysis-2/maxwin/BulkDock/SCRATCH/511020/C77353-P52

>  <fragmenstein_runtime>  (1090) 
21.28042960166931

>  <fragmenstein_outcome>  (1090) 
too moved

>  <fragmenstein_mode>  (1090) 
expansion

>  <fragmenstein_error>  (1090) 


$$$$
C77353-P20
     RDKit          3D

 39 41  0  0  0  0  0  0  0  0999 V2000
    4.4938  -12.6932   23.4107 O   0  0  0  0  0  0  0  0  0  0  0  0
    5.0717  -13.7623   23.4926 C   0  0  0  0  0  0  0  0  0  0  0  0
    5.5126  -14.3501   22.3520 O   0  0  0  0  0  0  0  0  0  0  0  0
    5.3405  -14.6457   24.7146 C   0  0  0  0  0  0  0  0  0  0  0  0
    5.3237  -13.9616   26.0228 N   0  0  0  0  0  0  0  0  0  0  0  0
    6.6336  -13.1833   26.1919 C   0  0  0  0  0  0  0  0  0  0  0  0
    7.0837  -12.1330   25.1239 C   0  0  0  0  0  0  0  0  0  0  0  0
    7.9808  -12.4439   24.0785 C   0  0  0  0  0  0  0  0  0  0  0  0
    8.3885  -11.4797   23.1312 C   0  0  0  0  0  0  0  0  0  0  0  0
    7.9169  -10.1737   23.2109 C   0  0  0  0  0  0  0  0  0  0  0  0
    7.0507   -9.8360   24.2487 C   0  0  0  0  0  0  0  0  0  0  0  0
    6.6507  -10.7974   25.1916 C   0  0  0  0  0  0  0  0  0  0  0  0
    4.8319  -14.7911   27.3792 C   0  0  0  0  0  0  0  0  0  0  0  0
    3.2972  -15.6324   27.7528 C   0  0  0  0  0  0  0  0  0  0  0  0
    2.0202  -15.1269   27.8925 N   0  0  0  0  0  0  0  0  0  0  0  0
    0.7875  -15.9354   28.3867 C   0  0  0  0  0  0  0  0  0  0  0  0
   -1.0355  -15.5257   28.3903 C   0  0  0  0  0  0  0  0  0  0  0  0
   -1.5816  -15.2145   29.8955 C   0  0  0  0  0  0  0  0  0  0  0  0
   -3.3232  -16.1107   30.5153 Cl  0  0  0  0  0  0  0  0  0  0  0  0
   -0.5038  -15.6381   30.7936 C   0  0  0  0  0  0  0  0  0  0  0  0
    0.8112  -16.6282   30.3600 C   0  0  0  0  0  0  0  0  0  0  0  0
    1.2968  -16.9316   28.9955 C   0  0  0  0  0  0  0  0  0  0  0  0
    2.7913  -16.9238   28.0619 N   0  0  0  0  0  0  0  0  0  0  0  0
    5.2199  -13.6956   21.6814 H   0  0  0  0  0  0  0  0  0  0  0  0
    4.5596  -15.3832   24.6353 H   0  0  0  0  0  0  0  0  0  0  0  0
    6.3019  -15.1532   24.5648 H   0  0  0  0  0  0  0  0  0  0  0  0
    6.5710  -12.6459   27.1468 H   0  0  0  0  0  0  0  0  0  0  0  0
    7.4469  -13.9107   26.3141 H   0  0  0  0  0  0  0  0  0  0  0  0
    8.3668  -13.4577   23.9873 H   0  0  0  0  0  0  0  0  0  0  0  0
    9.0700  -11.7645   22.3339 H   0  0  0  0  0  0  0  0  0  0  0  0
    8.2178   -9.4309   22.4785 H   0  0  0  0  0  0  0  0  0  0  0  0
    6.6736   -8.8198   24.3292 H   0  0  0  0  0  0  0  0  0  0  0  0
    5.9824  -10.4904   25.9920 H   0  0  0  0  0  0  0  0  0  0  0  0
    4.8398  -13.9736   28.1032 H   0  0  0  0  0  0  0  0  0  0  0  0
    5.6621  -15.4052   27.7417 H   0  0  0  0  0  0  0  0  0  0  0  0
   -1.5968  -15.0358   27.6066 H   0  0  0  0  0  0  0  0  0  0  0  0
   -0.4626  -14.8442   31.5137 H   0  0  0  0  0  0  0  0  0  0  0  0
    1.6374  -16.7117   31.0082 H   0  0  0  0  0  0  0  0  0  0  0  0
    3.4184  -17.6489   28.3503 H   0  0  0  0  0  0  0  0  0  0  0  0
  1  2  2  0
  2  3  1  0
  2  4  1  0
  4  5  1  0
  5  6  1  0
  6  7  1  0
  7  8  2  0
  8  9  1  0
  9 10  2  0
 10 11  1  0
 11 12  2  0
  5 13  1  0
 13 14  1  0
 14 15  2  0
 15 16  1  0
 16 17  2  0
 17 18  1  0
 18 19  1  0
 18 20  2  0
 20 21  1  0
 21 22  2  0
 22 23  1  0
 12  7  1  0
 23 14  1  0
 22 16  1  0
  3 24  1  0
  4 25  1  0
  4 26  1  0
  6 27  1  0
  6 28  1  0
  8 29  1  0
  9 30  1  0
 10 31  1  0
 11 32  1  0
 12 33  1  0
 13 34  1  0
 13 35  1  0
 17 36  1  0
 20 37  1  0
 21 38  1  0
 23 39  1  0
M  END
>  <Energy>  (1091) 
445.65934276121709

>  <compound_id>  (1091) 
77353

>  <target_id>  (1091) 
1

>  <reference_id>  (1091) 
20

>  <inspiration_ids>  (1091) 
[52, 20]

>  <energy_score>  (1091) 
363.0546807888863

>  <distance_score>  (1091) 
14.633552828080596

>  <path>  (1091) 
/opt/xchem-fragalysis-2/maxwin/BulkDock/SCRATCH/511020/C77353-P20/C77353-P20.minimised.mol

>  <scratch_subdir>  (1091) 
/opt/xchem-fragalysis-2/maxwin/BulkDock/SCRATCH/511020/C77353-P20

>  <fragmenstein_runtime>  (1091) 
23.565581798553467

>  <fragmenstein_outcome>  (1091) 
too moved

>  <fragmenstein_mode>  (1091) 
expansion

>  <fragmenstein_error>  (1091) 


$$$$
C77355-P52
     RDKit          3D

 51 53  0  0  0  0  0  0  0  0999 V2000
    8.9677  -12.4140   25.8090 C   0  0  0  0  0  0  0  0  0  0  0  0
    8.2322  -11.1272   25.3536 C   0  0  0  0  0  0  0  0  0  0  0  0
    9.0397  -10.7399   24.0807 C   0  0  0  0  0  0  0  0  0  0  0  0
    8.4851  -10.0366   26.4071 C   0  0  0  0  0  0  0  0  0  0  0  0
    6.8745  -11.5164   24.9697 O   0  0  0  0  0  0  0  0  0  0  0  0
    5.4423  -11.0093   25.2751 C   0  0  0  0  0  0  0  0  0  0  0  0
    4.0685  -12.4828   25.0669 C   0  0  0  0  0  0  0  0  0  0  0  0
    3.7867  -12.7374   23.9202 O   0  0  0  0  0  0  0  0  0  0  0  0
    3.5285  -13.3283   26.4928 N   0  0  0  0  0  0  0  0  0  0  0  0
    2.5086  -14.9047   26.6828 C   0  0  0  0  0  0  0  0  0  0  0  0
    0.7952  -15.4178   27.4161 C   0  0  0  0  0  0  0  0  0  0  0  0
   -0.8953  -16.2738   26.8309 C   0  0  0  0  0  0  0  0  0  0  0  0
   -2.2732  -16.1535   26.8832 N   0  0  0  0  0  0  0  0  0  0  0  0
   -2.9721  -17.7149   27.0928 C   0  0  0  0  0  0  0  0  0  0  0  0
   -4.2917  -18.2434   27.5989 C   0  0  0  0  0  0  0  0  0  0  0  0
   -4.6001  -19.5950   27.5360 C   0  0  0  0  0  0  0  0  0  0  0  0
   -3.5898  -20.4814   27.2707 C   0  0  0  0  0  0  0  0  0  0  0  0
   -2.3019  -20.0086   26.9905 C   0  0  0  0  0  0  0  0  0  0  0  0
   -2.0254  -18.5907   26.8762 C   0  0  0  0  0  0  0  0  0  0  0  0
   -1.0770  -17.5788   26.4633 N   0  0  0  0  0  0  0  0  0  0  0  0
    5.8887   -9.6300   24.6583 C   0  0  0  0  0  0  0  0  0  0  0  0
    6.4026   -9.4276   23.3575 C   0  0  0  0  0  0  0  0  0  0  0  0
    6.8523   -8.1831   22.8959 C   0  0  0  0  0  0  0  0  0  0  0  0
    6.8604   -7.0790   23.7361 C   0  0  0  0  0  0  0  0  0  0  0  0
    6.4331   -7.2346   25.0541 C   0  0  0  0  0  0  0  0  0  0  0  0
    5.9721   -8.4840   25.5119 C   0  0  0  0  0  0  0  0  0  0  0  0
   10.0417  -12.2429   25.9532 H   0  0  0  0  0  0  0  0  0  0  0  0
    8.6036  -12.8119   26.7524 H   0  0  0  0  0  0  0  0  0  0  0  0
    8.8598  -13.1965   25.0550 H   0  0  0  0  0  0  0  0  0  0  0  0
    8.8764   -9.7047   23.7820 H   0  0  0  0  0  0  0  0  0  0  0  0
   10.1217  -10.8137   24.2470 H   0  0  0  0  0  0  0  0  0  0  0  0
    8.7854  -11.3795   23.2304 H   0  0  0  0  0  0  0  0  0  0  0  0
    8.4596   -9.0376   25.9658 H   0  0  0  0  0  0  0  0  0  0  0  0
    9.4939  -10.1287   26.8289 H   0  0  0  0  0  0  0  0  0  0  0  0
    7.7915  -10.0335   27.2428 H   0  0  0  0  0  0  0  0  0  0  0  0
    5.2430  -10.7092   26.3006 H   0  0  0  0  0  0  0  0  0  0  0  0
    3.9902  -12.9456   27.3083 H   0  0  0  0  0  0  0  0  0  0  0  0
    2.7866  -15.5958   25.8774 H   0  0  0  0  0  0  0  0  0  0  0  0
    3.2543  -15.1542   27.4179 H   0  0  0  0  0  0  0  0  0  0  0  0
    0.6036  -14.4539   27.8832 H   0  0  0  0  0  0  0  0  0  0  0  0
    0.8484  -15.8288   28.4191 H   0  0  0  0  0  0  0  0  0  0  0  0
   -5.0608  -17.5199   27.8545 H   0  0  0  0  0  0  0  0  0  0  0  0
   -5.6160  -19.9390   27.6781 H   0  0  0  0  0  0  0  0  0  0  0  0
   -3.7912  -21.5487   27.2567 H   0  0  0  0  0  0  0  0  0  0  0  0
   -1.5765  -20.7993   26.8289 H   0  0  0  0  0  0  0  0  0  0  0  0
   -0.4494  -17.6800   25.7123 H   0  0  0  0  0  0  0  0  0  0  0  0
    6.5137  -10.2597   22.6891 H   0  0  0  0  0  0  0  0  0  0  0  0
    7.2063   -8.1411   21.8789 H   0  0  0  0  0  0  0  0  0  0  0  0
    7.2044   -6.1110   23.3863 H   0  0  0  0  0  0  0  0  0  0  0  0
    6.4573   -6.3875   25.7356 H   0  0  0  0  0  0  0  0  0  0  0  0
    5.6593   -8.5595   26.5537 H   0  0  0  0  0  0  0  0  0  0  0  0
  1  2  1  0
  2  3  1  0
  2  4  1  0
  2  5  1  0
  5  6  1  0
  6  7  1  0
  7  8  2  0
  7  9  1  0
  9 10  1  0
 10 11  1  0
 11 12  1  0
 12 13  2  0
 13 14  1  0
 14 15  2  0
 15 16  1  0
 16 17  2  0
 17 18  1  0
 18 19  2  0
 19 20  1  0
  6 21  1  0
 21 22  2  0
 22 23  1  0
 23 24  2  0
 24 25  1  0
 25 26  2  0
 20 12  1  0
 26 21  1  0
 19 14  1  0
  1 27  1  0
  1 28  1  0
  1 29  1  0
  3 30  1  0
  3 31  1  0
  3 32  1  0
  4 33  1  0
  4 34  1  0
  4 35  1  0
  6 36  1  0
  9 37  1  0
 10 38  1  0
 10 39  1  0
 11 40  1  0
 11 41  1  0
 15 42  1  0
 16 43  1  0
 17 44  1  0
 18 45  1  0
 20 46  1  0
 22 47  1  0
 23 48  1  0
 24 49  1  0
 25 50  1  0
 26 51  1  0
M  END
>  <Energy>  (1092) 
578.95516041886788

>  <compound_id>  (1092) 
77355

>  <target_id>  (1092) 
1

>  <reference_id>  (1092) 
52

>  <inspiration_ids>  (1092) 
[52, 20]

>  <energy_score>  (1092) 
468.5150125945995

>  <distance_score>  (1092) 
12.24670714571091

>  <path>  (1092) 
/opt/xchem-fragalysis-2/maxwin/BulkDock/SCRATCH/511020/C77355-P52/C77355-P52.minimised.mol

>  <scratch_subdir>  (1092) 
/opt/xchem-fragalysis-2/maxwin/BulkDock/SCRATCH/511020/C77355-P52

>  <fragmenstein_runtime>  (1092) 
30.622859954833984

>  <fragmenstein_outcome>  (1092) 
too moved

>  <fragmenstein_mode>  (1092) 
expansion

>  <fragmenstein_error>  (1092) 


$$$$
C77355-P20
     RDKit          3D

 51 53  0  0  0  0  0  0  0  0999 V2000
    7.2567  -11.5405   25.8260 C   0  0  0  0  0  0  0  0  0  0  0  0
    7.0819  -10.5190   24.6512 C   0  0  0  0  0  0  0  0  0  0  0  0
    8.5101  -10.4566   24.0989 C   0  0  0  0  0  0  0  0  0  0  0  0
    6.8390   -9.1182   25.3225 C   0  0  0  0  0  0  0  0  0  0  0  0
    6.1721  -11.2198   23.7306 O   0  0  0  0  0  0  0  0  0  0  0  0
    4.8650  -11.0376   22.5438 C   0  0  0  0  0  0  0  0  0  0  0  0
    3.3771  -12.3756   22.5580 C   0  0  0  0  0  0  0  0  0  0  0  0
    3.4338  -13.0457   21.5543 O   0  0  0  0  0  0  0  0  0  0  0  0
    2.2082  -12.6470   23.8537 N   0  0  0  0  0  0  0  0  0  0  0  0
    0.8933  -14.0300   24.1148 C   0  0  0  0  0  0  0  0  0  0  0  0
   -0.9697  -14.4634   24.4241 C   0  0  0  0  0  0  0  0  0  0  0  0
   -2.2472  -15.1105   25.7054 C   0  0  0  0  0  0  0  0  0  0  0  0
   -2.0628  -15.0588   27.1540 N   0  0  0  0  0  0  0  0  0  0  0  0
   -2.3655  -16.3261   27.9228 C   0  0  0  0  0  0  0  0  0  0  0  0
   -2.4109  -16.5853   29.3109 C   0  0  0  0  0  0  0  0  0  0  0  0
   -2.8747  -17.8341   29.7707 C   0  0  0  0  0  0  0  0  0  0  0  0
   -3.2543  -18.8314   28.8717 C   0  0  0  0  0  0  0  0  0  0  0  0
   -3.1837  -18.6122   27.4901 C   0  0  0  0  0  0  0  0  0  0  0  0
   -2.7604  -17.3403   27.0621 C   0  0  0  0  0  0  0  0  0  0  0  0
   -2.7064  -16.7647   25.7536 N   0  0  0  0  0  0  0  0  0  0  0  0
    5.8502  -11.6130   20.9825 C   0  0  0  0  0  0  0  0  0  0  0  0
    5.4073  -12.3555   19.8620 C   0  0  0  0  0  0  0  0  0  0  0  0
    6.1516  -12.8957   18.7764 C   0  0  0  0  0  0  0  0  0  0  0  0
    7.4680  -13.1542   18.9532 C   0  0  0  0  0  0  0  0  0  0  0  0
    7.9081  -12.8689   20.2138 C   0  0  0  0  0  0  0  0  0  0  0  0
    7.1667  -11.9740   21.1207 C   0  0  0  0  0  0  0  0  0  0  0  0
    7.6479  -12.4923   25.4563 H   0  0  0  0  0  0  0  0  0  0  0  0
    6.3185  -11.7682   26.3318 H   0  0  0  0  0  0  0  0  0  0  0  0
    7.9608  -11.1804   26.5857 H   0  0  0  0  0  0  0  0  0  0  0  0
    8.5718   -9.7296   23.2944 H   0  0  0  0  0  0  0  0  0  0  0  0
    9.2300  -10.1308   24.8609 H   0  0  0  0  0  0  0  0  0  0  0  0
    8.8448  -11.4358   23.7454 H   0  0  0  0  0  0  0  0  0  0  0  0
    5.8355   -8.7006   25.2473 H   0  0  0  0  0  0  0  0  0  0  0  0
    7.0916   -9.1372   26.3897 H   0  0  0  0  0  0  0  0  0  0  0  0
    7.5027   -8.3554   24.8924 H   0  0  0  0  0  0  0  0  0  0  0  0
    4.6660  -10.0963   22.9465 H   0  0  0  0  0  0  0  0  0  0  0  0
    2.4088  -12.0269   24.6071 H   0  0  0  0  0  0  0  0  0  0  0  0
    1.0269  -13.7699   25.2428 H   0  0  0  0  0  0  0  0  0  0  0  0
    1.4147  -14.7207   23.4802 H   0  0  0  0  0  0  0  0  0  0  0  0
   -1.2971  -13.5843   24.9931 H   0  0  0  0  0  0  0  0  0  0  0  0
   -1.3230  -14.9079   23.5167 H   0  0  0  0  0  0  0  0  0  0  0  0
   -2.1597  -15.7977   30.0133 H   0  0  0  0  0  0  0  0  0  0  0  0
   -2.9548  -18.0137   30.8409 H   0  0  0  0  0  0  0  0  0  0  0  0
   -3.6254  -19.7811   29.2526 H   0  0  0  0  0  0  0  0  0  0  0  0
   -3.5081  -19.3739   26.7891 H   0  0  0  0  0  0  0  0  0  0  0  0
   -2.2986  -17.3209   25.0582 H   0  0  0  0  0  0  0  0  0  0  0  0
    4.3826  -12.6653   19.7528 H   0  0  0  0  0  0  0  0  0  0  0  0
    5.6176  -13.2967   17.9188 H   0  0  0  0  0  0  0  0  0  0  0  0
    8.0536  -13.7082   18.2327 H   0  0  0  0  0  0  0  0  0  0  0  0
    8.8930  -13.2289   20.5158 H   0  0  0  0  0  0  0  0  0  0  0  0
    7.6613  -11.6889   22.0390 H   0  0  0  0  0  0  0  0  0  0  0  0
  1  2  1  0
  2  3  1  0
  2  4  1  0
  2  5  1  0
  5  6  1  0
  6  7  1  0
  7  8  2  0
  7  9  1  0
  9 10  1  0
 10 11  1  0
 11 12  1  0
 12 13  2  0
 13 14  1  0
 14 15  2  0
 15 16  1  0
 16 17  2  0
 17 18  1  0
 18 19  2  0
 19 20  1  0
  6 21  1  0
 21 22  2  0
 22 23  1  0
 23 24  2  0
 24 25  1  0
 25 26  2  0
 20 12  1  0
 26 21  1  0
 19 14  1  0
  1 27  1  0
  1 28  1  0
  1 29  1  0
  3 30  1  0
  3 31  1  0
  3 32  1  0
  4 33  1  0
  4 34  1  0
  4 35  1  0
  6 36  1  0
  9 37  1  0
 10 38  1  0
 10 39  1  0
 11 40  1  0
 11 41  1  0
 15 42  1  0
 16 43  1  0
 17 44  1  0
 18 45  1  0
 20 46  1  0
 22 47  1  0
 23 48  1  0
 24 49  1  0
 25 50  1  0
 26 51  1  0
M  END
>  <Energy>  (1093) 
660.14240481823992

>  <compound_id>  (1093) 
77355

>  <target_id>  (1093) 
1

>  <reference_id>  (1093) 
20

>  <inspiration_ids>  (1093) 
[52, 20]

>  <energy_score>  (1093) 
549.7022569939558

>  <distance_score>  (1093) 
12.197953621852035

>  <path>  (1093) 
/opt/xchem-fragalysis-2/maxwin/BulkDock/SCRATCH/511020/C77355-P20/C77355-P20.minimised.mol

>  <scratch_subdir>  (1093) 
/opt/xchem-fragalysis-2/maxwin/BulkDock/SCRATCH/511020/C77355-P20

>  <fragmenstein_runtime>  (1093) 
25.539267539978027

>  <fragmenstein_outcome>  (1093) 
too moved

>  <fragmenstein_mode>  (1093) 
expansion

>  <fragmenstein_error>  (1093) 


$$$$
C77356-P52
     RDKit          3D

 46 48  0  0  0  0  0  0  0  0999 V2000
    3.0993  -17.9070   23.3275 C   0  0  0  0  0  0  0  0  0  0  0  0
    1.8128  -18.8284   22.0487 C   0  0  0  0  0  0  0  0  0  0  0  0
    3.1264  -18.0128   20.7995 C   0  0  0  0  0  0  0  0  0  0  0  0
    4.8923  -17.1065   20.4967 N   0  0  0  0  0  0  0  0  0  0  0  0
    6.3191  -17.1752   19.6433 C   0  0  0  0  0  0  0  0  0  0  0  0
    6.9641  -16.0937   18.6360 C   0  0  0  0  0  0  0  0  0  0  0  0
    8.3648  -16.1407   18.4004 C   0  0  0  0  0  0  0  0  0  0  0  0
    9.0500  -15.1779   17.6229 C   0  0  0  0  0  0  0  0  0  0  0  0
    8.3541  -14.1479   17.0062 C   0  0  0  0  0  0  0  0  0  0  0  0
    6.9778  -14.1013   17.1647 C   0  0  0  0  0  0  0  0  0  0  0  0
    6.3127  -15.0499   17.9670 C   0  0  0  0  0  0  0  0  0  0  0  0
    0.1502  -18.4471   23.1984 N   0  0  0  0  0  0  0  0  0  0  0  0
   -1.6064  -19.3273   23.3511 C   0  0  0  0  0  0  0  0  0  0  0  0
   -1.7640  -20.1906   22.5855 O   0  0  0  0  0  0  0  0  0  0  0  0
   -3.4009  -19.0123   24.4370 C   0  0  0  0  0  0  0  0  0  0  0  0
   -4.1374  -20.2383   24.4993 C   0  0  0  0  0  0  0  0  0  0  0  0
   -5.1140  -21.8761   24.5691 C   0  0  0  0  0  0  0  0  0  0  0  0
   -5.5731  -22.1157   25.7944 C   0  0  0  0  0  0  0  0  0  0  0  0
   -5.0160  -20.6868   26.4728 C   0  0  0  0  0  0  0  0  0  0  0  0
   -5.4000  -18.9216   26.2684 N   0  0  0  0  0  0  0  0  0  0  0  0
   -6.1350  -18.6691   27.2240 C   0  0  0  0  0  0  0  0  0  0  0  0
   -5.4314  -19.8608   27.2709 N   0  0  0  0  0  0  0  0  0  0  0  0
   -6.5090  -21.2215   27.8339 C   0  0  0  0  0  0  0  0  0  0  0  0
   -4.4713  -19.7544   25.6731 C   0  0  0  0  0  0  0  0  0  0  0  0
    2.6107  -17.4633   24.1785 H   0  0  0  0  0  0  0  0  0  0  0  0
    3.2636  -16.9071   22.9626 H   0  0  0  0  0  0  0  0  0  0  0  0
    3.8507  -18.5170   23.8036 H   0  0  0  0  0  0  0  0  0  0  0  0
    1.3539  -18.2837   21.1730 H   0  0  0  0  0  0  0  0  0  0  0  0
    2.8781  -18.7110   19.9565 H   0  0  0  0  0  0  0  0  0  0  0  0
    3.7759  -18.0537   21.6354 H   0  0  0  0  0  0  0  0  0  0  0  0
    5.1570  -16.7958   21.4367 H   0  0  0  0  0  0  0  0  0  0  0  0
    6.5835  -18.1898   19.3409 H   0  0  0  0  0  0  0  0  0  0  0  0
    7.0704  -17.2901   20.4043 H   0  0  0  0  0  0  0  0  0  0  0  0
    8.9491  -16.9244   18.8834 H   0  0  0  0  0  0  0  0  0  0  0  0
   10.1282  -15.2550   17.5060 H   0  0  0  0  0  0  0  0  0  0  0  0
    8.8702  -13.4104   16.4000 H   0  0  0  0  0  0  0  0  0  0  0  0
    6.3978  -13.3126   16.6899 H   0  0  0  0  0  0  0  0  0  0  0  0
    5.2491  -14.9114   18.0824 H   0  0  0  0  0  0  0  0  0  0  0  0
    0.2388  -17.7934   23.9341 H   0  0  0  0  0  0  0  0  0  0  0  0
   -3.5056  -20.0726   23.5466 H   0  0  0  0  0  0  0  0  0  0  0  0
   -5.3551  -22.5274   23.7135 H   0  0  0  0  0  0  0  0  0  0  0  0
   -6.4730  -22.6844   25.8531 H   0  0  0  0  0  0  0  0  0  0  0  0
   -6.8239  -18.1113   27.8314 H   0  0  0  0  0  0  0  0  0  0  0  0
   -7.3239  -20.7422   28.2587 H   0  0  0  0  0  0  0  0  0  0  0  0
   -7.1200  -21.5982   27.0391 H   0  0  0  0  0  0  0  0  0  0  0  0
   -5.7353  -21.8368   28.2609 H   0  0  0  0  0  0  0  0  0  0  0  0
  1  2  1  0
  2  3  1  0
  3  4  1  0
  4  5  1  0
  5  6  1  0
  6  7  2  0
  7  8  1  0
  8  9  2  0
  9 10  1  0
 10 11  2  0
  2 12  1  0
 12 13  1  0
 13 14  2  0
 13 15  1  0
 15 16  2  0
 16 17  1  0
 17 18  2  0
 18 19  1  0
 19 20  1  0
 20 21  2  0
 21 22  1  0
 22 23  1  0
 22 24  1  0
 11  6  1  0
 24 15  1  0
 24 19  2  0
  1 25  1  0
  1 26  1  0
  1 27  1  0
  2 28  1  0
  3 29  1  0
  3 30  1  0
  4 31  1  0
  5 32  1  0
  5 33  1  0
  7 34  1  0
  8 35  1  0
  9 36  1  0
 10 37  1  0
 11 38  1  0
 12 39  1  0
 16 40  1  0
 17 41  1  0
 18 42  1  0
 21 43  1  0
 23 44  1  0
 23 45  1  0
 23 46  1  0
M  END
>  <Energy>  (1094) 
1770.4244792512645

>  <compound_id>  (1094) 
77356

>  <target_id>  (1094) 
1

>  <reference_id>  (1094) 
52

>  <inspiration_ids>  (1094) 
[52, 20]

>  <energy_score>  (1094) 
1703.7497097414216

>  <distance_score>  (1094) 
11.591284518340935

>  <path>  (1094) 
/opt/xchem-fragalysis-2/maxwin/BulkDock/SCRATCH/511020/C77356-P52/C77356-P52.minimised.mol

>  <scratch_subdir>  (1094) 
/opt/xchem-fragalysis-2/maxwin/BulkDock/SCRATCH/511020/C77356-P52

>  <fragmenstein_runtime>  (1094) 
35.654703855514526

>  <fragmenstein_outcome>  (1094) 
too moved

>  <fragmenstein_mode>  (1094) 
expansion

>  <fragmenstein_error>  (1094) 


$$$$
C77356-P20
     RDKit          3D

 46 48  0  0  0  0  0  0  0  0999 V2000
    1.7999  -16.5423   27.9327 C   0  0  0  0  0  0  0  0  0  0  0  0
    3.3606  -16.4475   28.0771 C   0  0  0  0  0  0  0  0  0  0  0  0
    3.8526  -14.6873   27.3239 C   0  0  0  0  0  0  0  0  0  0  0  0
    4.7667  -13.9370   25.8827 N   0  0  0  0  0  0  0  0  0  0  0  0
    6.0625  -12.7641   26.4157 C   0  0  0  0  0  0  0  0  0  0  0  0
    6.9427  -11.7420   25.5543 C   0  0  0  0  0  0  0  0  0  0  0  0
    6.8698  -10.3432   25.7393 C   0  0  0  0  0  0  0  0  0  0  0  0
    7.6086   -9.4145   24.9684 C   0  0  0  0  0  0  0  0  0  0  0  0
    8.5538   -9.8609   24.0597 C   0  0  0  0  0  0  0  0  0  0  0  0
    8.8078  -11.2237   24.0067 C   0  0  0  0  0  0  0  0  0  0  0  0
    8.0457  -12.1293   24.7722 C   0  0  0  0  0  0  0  0  0  0  0  0
    3.2516  -17.2320   29.8184 N   0  0  0  0  0  0  0  0  0  0  0  0
    1.9859  -17.2343   30.9441 C   0  0  0  0  0  0  0  0  0  0  0  0
    0.9312  -16.6481   30.8779 O   0  0  0  0  0  0  0  0  0  0  0  0
    1.9978  -18.1388   32.1815 C   0  0  0  0  0  0  0  0  0  0  0  0
    3.1098  -18.8480   32.6192 C   0  0  0  0  0  0  0  0  0  0  0  0
    2.9719  -20.0300   33.3713 C   0  0  0  0  0  0  0  0  0  0  0  0
    1.7237  -20.5962   33.6652 C   0  0  0  0  0  0  0  0  0  0  0  0
    0.5670  -19.9090   33.2982 C   0  0  0  0  0  0  0  0  0  0  0  0
   -0.7360  -20.3270   33.4530 N   0  0  0  0  0  0  0  0  0  0  0  0
   -1.4529  -19.3125   33.0541 C   0  0  0  0  0  0  0  0  0  0  0  0
   -0.6544  -18.2377   32.7273 N   0  0  0  0  0  0  0  0  0  0  0  0
   -1.1907  -16.9085   32.9227 C   0  0  0  0  0  0  0  0  0  0  0  0
    0.6846  -18.6526   32.6765 C   0  0  0  0  0  0  0  0  0  0  0  0
    1.1755  -16.8337   28.7592 H   0  0  0  0  0  0  0  0  0  0  0  0
    1.4861  -15.5353   27.8185 H   0  0  0  0  0  0  0  0  0  0  0  0
    1.5475  -17.3086   27.2306 H   0  0  0  0  0  0  0  0  0  0  0  0
    3.4690  -17.2188   27.3851 H   0  0  0  0  0  0  0  0  0  0  0  0
    4.3835  -14.1165   28.0765 H   0  0  0  0  0  0  0  0  0  0  0  0
    2.9100  -14.1610   27.1710 H   0  0  0  0  0  0  0  0  0  0  0  0
    4.0210  -13.3522   25.5065 H   0  0  0  0  0  0  0  0  0  0  0  0
    5.6801  -12.2647   27.3120 H   0  0  0  0  0  0  0  0  0  0  0  0
    6.8917  -13.3854   26.7633 H   0  0  0  0  0  0  0  0  0  0  0  0
    6.2278   -9.9443   26.5221 H   0  0  0  0  0  0  0  0  0  0  0  0
    7.4570   -8.3487   25.1178 H   0  0  0  0  0  0  0  0  0  0  0  0
    9.1367   -9.1625   23.4681 H   0  0  0  0  0  0  0  0  0  0  0  0
    9.6187  -11.5989   23.3864 H   0  0  0  0  0  0  0  0  0  0  0  0
    8.3862  -13.1624   24.7688 H   0  0  0  0  0  0  0  0  0  0  0  0
    3.9603  -17.8767   30.1114 H   0  0  0  0  0  0  0  0  0  0  0  0
    4.1047  -18.5308   32.3172 H   0  0  0  0  0  0  0  0  0  0  0  0
    3.8700  -20.5666   33.6753 H   0  0  0  0  0  0  0  0  0  0  0  0
    1.6485  -21.5495   34.1773 H   0  0  0  0  0  0  0  0  0  0  0  0
   -2.5342  -19.2541   33.0675 H   0  0  0  0  0  0  0  0  0  0  0  0
   -1.2573  -16.7398   34.0029 H   0  0  0  0  0  0  0  0  0  0  0  0
   -2.1947  -16.8464   32.4957 H   0  0  0  0  0  0  0  0  0  0  0  0
   -0.5391  -16.1474   32.5018 H   0  0  0  0  0  0  0  0  0  0  0  0
  1  2  1  0
  2  3  1  0
  3  4  1  0
  4  5  1  0
  5  6  1  0
  6  7  2  0
  7  8  1  0
  8  9  2  0
  9 10  1  0
 10 11  2  0
  2 12  1  0
 12 13  1  0
 13 14  2  0
 13 15  1  0
 15 16  2  0
 16 17  1  0
 17 18  2  0
 18 19  1  0
 19 20  1  0
 20 21  2  0
 21 22  1  0
 22 23  1  0
 22 24  1  0
 11  6  1  0
 24 15  1  0
 24 19  2  0
  1 25  1  0
  1 26  1  0
  1 27  1  0
  2 28  1  0
  3 29  1  0
  3 30  1  0
  4 31  1  0
  5 32  1  0
  5 33  1  0
  7 34  1  0
  8 35  1  0
  9 36  1  0
 10 37  1  0
 11 38  1  0
 12 39  1  0
 16 40  1  0
 17 41  1  0
 18 42  1  0
 21 43  1  0
 23 44  1  0
 23 45  1  0
 23 46  1  0
M  END
>  <Energy>  (1095) 
347.98679302163015

>  <compound_id>  (1095) 
77356

>  <target_id>  (1095) 
1

>  <reference_id>  (1095) 
20

>  <inspiration_ids>  (1095) 
[52, 20]

>  <energy_score>  (1095) 
281.3120235117775

>  <distance_score>  (1095) 
13.53787526583356

>  <path>  (1095) 
/opt/xchem-fragalysis-2/maxwin/BulkDock/SCRATCH/511020/C77356-P20/C77356-P20.minimised.mol

>  <scratch_subdir>  (1095) 
/opt/xchem-fragalysis-2/maxwin/BulkDock/SCRATCH/511020/C77356-P20

>  <fragmenstein_runtime>  (1095) 
33.9463255405426

>  <fragmenstein_outcome>  (1095) 
too moved

>  <fragmenstein_mode>  (1095) 
expansion

>  <fragmenstein_error>  (1095) 


$$$$
C77357-P52
     RDKit          3D

 51 53  0  0  0  0  0  0  0  0999 V2000
    1.3679  -14.7015   27.4799 C   0  0  0  0  0  0  0  0  0  0  0  0
    1.2132  -16.0199   26.7323 C   0  0  0  0  0  0  0  0  0  0  0  0
    2.7169  -15.3617   25.6684 N   0  0  0  0  0  0  0  0  0  0  0  0
    3.6381  -13.6939   25.7204 C   0  0  0  0  0  0  0  0  0  0  0  0
    3.4453  -12.8712   26.5642 O   0  0  0  0  0  0  0  0  0  0  0  0
    4.7065  -12.9997   24.4294 C   0  0  0  0  0  0  0  0  0  0  0  0
    5.5234  -11.1959   24.6796 C   0  0  0  0  0  0  0  0  0  0  0  0
    5.3809  -10.4144   25.8496 C   0  0  0  0  0  0  0  0  0  0  0  0
    5.9473   -9.1266   26.1226 C   0  0  0  0  0  0  0  0  0  0  0  0
    6.7769   -8.4969   25.2162 C   0  0  0  0  0  0  0  0  0  0  0  0
    7.0545   -9.1745   24.0594 C   0  0  0  0  0  0  0  0  0  0  0  0
    6.4713  -10.4549   23.8293 C   0  0  0  0  0  0  0  0  0  0  0  0
   -0.5066  -17.0863   26.1220 C   0  0  0  0  0  0  0  0  0  0  0  0
   -0.8350  -18.4236   27.5216 C   0  0  0  0  0  0  0  0  0  0  0  0
   -2.3504  -17.4101   25.7911 N   0  0  0  0  0  0  0  0  0  0  0  0
   -3.2607  -18.7012   24.6827 C   0  0  0  0  0  0  0  0  0  0  0  0
   -2.6236  -19.4759   23.9269 O   0  0  0  0  0  0  0  0  0  0  0  0
   -5.0381  -19.0569   24.5492 C   0  0  0  0  0  0  0  0  0  0  0  0
   -5.7624  -18.5641   23.3546 C   0  0  0  0  0  0  0  0  0  0  0  0
   -6.3633  -19.1587   22.2297 C   0  0  0  0  0  0  0  0  0  0  0  0
   -6.4908  -20.4979   22.2011 C   0  0  0  0  0  0  0  0  0  0  0  0
   -6.1875  -21.0940   23.4069 C   0  0  0  0  0  0  0  0  0  0  0  0
   -6.4781  -22.3833   23.6526 N   0  0  0  0  0  0  0  0  0  0  0  0
   -6.0687  -22.5236   24.8672 C   0  0  0  0  0  0  0  0  0  0  0  0
   -5.8102  -21.3624   25.5098 N   0  0  0  0  0  0  0  0  0  0  0  0
   -5.9970  -21.0889   26.9179 C   0  0  0  0  0  0  0  0  0  0  0  0
   -5.4870  -20.4211   24.5119 C   0  0  0  0  0  0  0  0  0  0  0  0
    1.3292  -13.7595   26.9641 H   0  0  0  0  0  0  0  0  0  0  0  0
    1.0199  -14.5646   28.5243 H   0  0  0  0  0  0  0  0  0  0  0  0
    2.4300  -14.8661   27.5252 H   0  0  0  0  0  0  0  0  0  0  0  0
    0.7610  -16.0480   27.7317 H   0  0  0  0  0  0  0  0  0  0  0  0
    3.1002  -15.9404   24.9142 H   0  0  0  0  0  0  0  0  0  0  0  0
    3.8165  -12.5782   23.9400 H   0  0  0  0  0  0  0  0  0  0  0  0
    4.9735  -13.6791   23.6307 H   0  0  0  0  0  0  0  0  0  0  0  0
    4.7146  -10.7766   26.6352 H   0  0  0  0  0  0  0  0  0  0  0  0
    5.6995   -8.6430   27.0673 H   0  0  0  0  0  0  0  0  0  0  0  0
    7.2043   -7.5242   25.4292 H   0  0  0  0  0  0  0  0  0  0  0  0
    7.7343   -8.7520   23.3248 H   0  0  0  0  0  0  0  0  0  0  0  0
    6.8725  -10.8005   22.8988 H   0  0  0  0  0  0  0  0  0  0  0  0
   -0.9859  -16.2214   26.5948 H   0  0  0  0  0  0  0  0  0  0  0  0
   -0.3089  -19.3548   27.6589 H   0  0  0  0  0  0  0  0  0  0  0  0
   -0.6025  -18.0944   28.5524 H   0  0  0  0  0  0  0  0  0  0  0  0
   -1.7960  -18.6028   27.2810 H   0  0  0  0  0  0  0  0  0  0  0  0
   -3.0360  -16.8363   26.2541 H   0  0  0  0  0  0  0  0  0  0  0  0
   -6.1304  -17.5458   23.3357 H   0  0  0  0  0  0  0  0  0  0  0  0
   -6.7823  -18.5476   21.4356 H   0  0  0  0  0  0  0  0  0  0  0  0
   -6.9676  -21.0396   21.3959 H   0  0  0  0  0  0  0  0  0  0  0  0
   -5.9137  -23.4647   25.2884 H   0  0  0  0  0  0  0  0  0  0  0  0
   -6.9508  -21.4927   27.2461 H   0  0  0  0  0  0  0  0  0  0  0  0
   -5.1831  -21.5218   27.4911 H   0  0  0  0  0  0  0  0  0  0  0  0
   -6.0209  -20.0110   27.0399 H   0  0  0  0  0  0  0  0  0  0  0  0
  1  2  1  0
  2  3  1  0
  3  4  1  0
  4  5  2  0
  4  6  1  0
  6  7  1  0
  7  8  2  0
  8  9  1  0
  9 10  2  0
 10 11  1  0
 11 12  2  0
  2 13  1  0
 13 14  1  0
 13 15  1  0
 15 16  1  0
 16 17  2  0
 16 18  1  0
 18 19  2  0
 19 20  1  0
 20 21  2  0
 21 22  1  0
 22 23  1  0
 23 24  2  0
 24 25  1  0
 25 26  1  0
 25 27  1  0
 12  7  1  0
 27 18  1  0
 27 22  2  0
  1 28  1  0
  1 29  1  0
  1 30  1  0
  2 31  1  0
  3 32  1  0
  6 33  1  0
  6 34  1  0
  8 35  1  0
  9 36  1  0
 10 37  1  0
 11 38  1  0
 12 39  1  0
 13 40  1  0
 14 41  1  0
 14 42  1  0
 14 43  1  0
 15 44  1  0
 19 45  1  0
 20 46  1  0
 21 47  1  0
 24 48  1  0
 26 49  1  0
 26 50  1  0
 26 51  1  0
M  END
>  <Energy>  (1096) 
906.8438736873145

>  <compound_id>  (1096) 
77357

>  <target_id>  (1096) 
1

>  <reference_id>  (1096) 
52

>  <inspiration_ids>  (1096) 
[52, 20]

>  <energy_score>  (1096) 
805.6040113001202

>  <distance_score>  (1096) 
12.13050163429816

>  <path>  (1096) 
/opt/xchem-fragalysis-2/maxwin/BulkDock/SCRATCH/511020/C77357-P52/C77357-P52.minimised.mol

>  <scratch_subdir>  (1096) 
/opt/xchem-fragalysis-2/maxwin/BulkDock/SCRATCH/511020/C77357-P52

>  <fragmenstein_runtime>  (1096) 
43.34829139709473

>  <fragmenstein_outcome>  (1096) 
too moved

>  <fragmenstein_mode>  (1096) 
expansion

>  <fragmenstein_error>  (1096) 


$$$$
C77357-P20
     RDKit          3D

 51 53  0  0  0  0  0  0  0  0999 V2000
    1.8988  -13.0716   24.7461 C   0  0  0  0  0  0  0  0  0  0  0  0
    0.4653  -14.3408   24.3655 C   0  0  0  0  0  0  0  0  0  0  0  0
    2.1674  -14.3573   23.2734 N   0  0  0  0  0  0  0  0  0  0  0  0
    3.1483  -12.9356   22.4767 C   0  0  0  0  0  0  0  0  0  0  0  0
    2.8046  -11.8333   22.7201 O   0  0  0  0  0  0  0  0  0  0  0  0
    4.5712  -12.8859   21.0586 C   0  0  0  0  0  0  0  0  0  0  0  0
    4.7545  -12.4056   19.3982 C   0  0  0  0  0  0  0  0  0  0  0  0
    4.8982  -13.3341   18.3524 C   0  0  0  0  0  0  0  0  0  0  0  0
    4.9164  -12.9398   17.0055 C   0  0  0  0  0  0  0  0  0  0  0  0
    4.7803  -11.6021   16.6637 C   0  0  0  0  0  0  0  0  0  0  0  0
    4.7287  -10.6592   17.6759 C   0  0  0  0  0  0  0  0  0  0  0  0
    4.8820  -11.0389   19.0097 C   0  0  0  0  0  0  0  0  0  0  0  0
   -1.4609  -14.8199   25.3816 C   0  0  0  0  0  0  0  0  0  0  0  0
    0.2188  -13.4426   25.9699 C   0  0  0  0  0  0  0  0  0  0  0  0
   -2.9623  -16.4206   25.8818 N   0  0  0  0  0  0  0  0  0  0  0  0
   -4.1565  -16.8185   27.6851 C   0  0  0  0  0  0  0  0  0  0  0  0
   -3.7243  -16.1299   28.5173 O   0  0  0  0  0  0  0  0  0  0  0  0
   -6.2377  -17.6833   28.5954 C   0  0  0  0  0  0  0  0  0  0  0  0
   -6.7023  -18.1748   30.2885 C   0  0  0  0  0  0  0  0  0  0  0  0
   -6.4139  -19.8211   31.2911 C   0  0  0  0  0  0  0  0  0  0  0  0
   -7.9828  -21.0856   31.4022 C   0  0  0  0  0  0  0  0  0  0  0  0
   -9.4778  -20.4857   29.7972 C   0  0  0  0  0  0  0  0  0  0  0  0
   -9.8062  -21.7578   28.5345 N   0  0  0  0  0  0  0  0  0  0  0  0
   -8.4856  -22.1247   27.9414 C   0  0  0  0  0  0  0  0  0  0  0  0
   -7.5891  -20.6554   27.6646 N   0  0  0  0  0  0  0  0  0  0  0  0
   -6.3649  -21.0577   26.9425 C   0  0  0  0  0  0  0  0  0  0  0  0
   -8.0226  -19.1260   28.7903 C   0  0  0  0  0  0  0  0  0  0  0  0
    2.9663  -13.3024   24.5056 H   0  0  0  0  0  0  0  0  0  0  0  0
    1.7700  -12.0305   24.5088 H   0  0  0  0  0  0  0  0  0  0  0  0
    2.1002  -13.3306   25.7636 H   0  0  0  0  0  0  0  0  0  0  0  0
   -0.1007  -14.0852   23.4323 H   0  0  0  0  0  0  0  0  0  0  0  0
    2.6280  -15.2173   23.0603 H   0  0  0  0  0  0  0  0  0  0  0  0
    4.9102  -11.8479   21.2660 H   0  0  0  0  0  0  0  0  0  0  0  0
    5.4343  -13.5059   21.0182 H   0  0  0  0  0  0  0  0  0  0  0  0
    4.9718  -14.3989   18.5310 H   0  0  0  0  0  0  0  0  0  0  0  0
    4.9874  -13.6943   16.2266 H   0  0  0  0  0  0  0  0  0  0  0  0
    4.7112  -11.2994   15.6234 H   0  0  0  0  0  0  0  0  0  0  0  0
    4.5490   -9.6172   17.4378 H   0  0  0  0  0  0  0  0  0  0  0  0
    4.9346  -10.2339   19.7438 H   0  0  0  0  0  0  0  0  0  0  0  0
   -2.1313  -13.9766   25.5553 H   0  0  0  0  0  0  0  0  0  0  0  0
    0.9878  -14.1266   26.4979 H   0  0  0  0  0  0  0  0  0  0  0  0
    0.1416  -12.3379   26.0606 H   0  0  0  0  0  0  0  0  0  0  0  0
    0.6502  -13.0072   26.9298 H   0  0  0  0  0  0  0  0  0  0  0  0
   -3.3413  -16.9143   25.1509 H   0  0  0  0  0  0  0  0  0  0  0  0
   -6.6258  -17.2811   30.9631 H   0  0  0  0  0  0  0  0  0  0  0  0
   -6.0079  -19.6752   32.3308 H   0  0  0  0  0  0  0  0  0  0  0  0
   -8.3597  -21.1964   32.5587 H   0  0  0  0  0  0  0  0  0  0  0  0
   -8.0794  -22.9330   27.3842 H   0  0  0  0  0  0  0  0  0  0  0  0
   -5.7615  -21.6397   27.6196 H   0  0  0  0  0  0  0  0  0  0  0  0
   -6.5508  -21.9054   26.2794 H   0  0  0  0  0  0  0  0  0  0  0  0
   -5.9161  -20.2286   26.4127 H   0  0  0  0  0  0  0  0  0  0  0  0
  1  2  1  0
  2  3  1  0
  3  4  1  0
  4  5  2  0
  4  6  1  0
  6  7  1  0
  7  8  2  0
  8  9  1  0
  9 10  2  0
 10 11  1  0
 11 12  2  0
  2 13  1  0
 13 14  1  0
 13 15  1  0
 15 16  1  0
 16 17  2  0
 16 18  1  0
 18 19  2  0
 19 20  1  0
 20 21  2  0
 21 22  1  0
 22 23  1  0
 23 24  2  0
 24 25  1  0
 25 26  1  0
 25 27  1  0
 12  7  1  0
 27 18  1  0
 27 22  2  0
  1 28  1  0
  1 29  1  0
  1 30  1  0
  2 31  1  0
  3 32  1  0
  6 33  1  0
  6 34  1  0
  8 35  1  0
  9 36  1  0
 10 37  1  0
 11 38  1  0
 12 39  1  0
 13 40  1  0
 14 41  1  0
 14 42  1  0
 14 43  1  0
 15 44  1  0
 19 45  1  0
 20 46  1  0
 21 47  1  0
 24 48  1  0
 26 49  1  0
 26 50  1  0
 26 51  1  0
M  END
>  <Energy>  (1097) 
3995.6251722285788

>  <compound_id>  (1097) 
77357

>  <target_id>  (1097) 
1

>  <reference_id>  (1097) 
20

>  <inspiration_ids>  (1097) 
[52, 20]

>  <energy_score>  (1097) 
3894.385309841415

>  <distance_score>  (1097) 
9.649657787096945

>  <path>  (1097) 
/opt/xchem-fragalysis-2/maxwin/BulkDock/SCRATCH/511020/C77357-P20/C77357-P20.minimised.mol

>  <scratch_subdir>  (1097) 
/opt/xchem-fragalysis-2/maxwin/BulkDock/SCRATCH/511020/C77357-P20

>  <fragmenstein_runtime>  (1097) 
33.341201305389404

>  <fragmenstein_outcome>  (1097) 
too moved

>  <fragmenstein_mode>  (1097) 
expansion

>  <fragmenstein_error>  (1097) 


$$$$
C37520-P51
     RDKit          3D

 44 47  0  0  0  0  0  0  0  0999 V2000
   -4.2080  -13.0948   21.3307 O   0  0  0  0  0  0  0  0  0  0  0  0
   -4.0453  -13.6154   20.2586 C   0  0  0  0  0  0  0  0  0  0  0  0
   -4.4937  -15.1504   20.1323 C   0  0  0  0  0  0  0  0  0  0  0  0
   -5.0036  -15.8372   21.3694 N   0  0  0  0  0  0  0  0  0  0  0  0
   -6.1250  -16.6224   21.4491 C   0  0  0  0  0  0  0  0  0  0  0  0
   -6.9775  -16.8526   20.6062 O   0  0  0  0  0  0  0  0  0  0  0  0
   -6.1544  -17.2426   22.6777 N   0  0  0  0  0  0  0  0  0  0  0  0
   -5.1230  -16.7632   23.5561 C   0  0  0  0  0  0  0  0  0  0  0  0
   -5.6571  -15.6774   24.5202 C   0  0  0  0  0  0  0  0  0  0  0  0
   -4.8924  -15.8393   25.8432 C   0  0  0  0  0  0  0  0  0  0  0  0
   -4.4763  -17.2771   25.8038 C   0  0  0  0  0  0  0  0  0  0  0  0
   -3.9937  -18.0368   26.8622 C   0  0  0  0  0  0  0  0  0  0  0  0
   -3.5852  -19.3455   26.6112 C   0  0  0  0  0  0  0  0  0  0  0  0
   -3.6614  -19.8678   25.3163 C   0  0  0  0  0  0  0  0  0  0  0  0
   -4.1322  -19.0852   24.2517 C   0  0  0  0  0  0  0  0  0  0  0  0
   -4.5484  -17.7857   24.4990 C   0  0  0  0  0  0  0  0  0  0  0  0
   -4.2243  -16.1176   22.4797 C   0  0  0  0  0  0  0  0  0  0  0  0
   -3.0361  -15.8454   22.5935 O   0  0  0  0  0  0  0  0  0  0  0  0
   -3.3983  -13.1037   19.0267 N   0  0  0  0  0  0  0  0  0  0  0  0
   -2.6650  -11.8311   18.7678 C   0  0  0  0  0  0  0  0  0  0  0  0
   -2.6415  -11.0342   17.4277 C   0  0  0  0  0  0  0  0  0  0  0  0
   -2.3631  -11.6241   16.1978 C   0  0  0  0  0  0  0  0  0  0  0  0
   -2.0471  -10.8226   15.0818 C   0  0  0  0  0  0  0  0  0  0  0  0
   -1.9641   -9.4425   15.2112 C   0  0  0  0  0  0  0  0  0  0  0  0
   -2.2650   -8.9139   16.4496 C   0  0  0  0  0  0  0  0  0  0  0  0
   -2.6112   -9.6663   17.5315 N   0  0  0  0  0  0  0  0  0  0  0  0
   -3.6159  -15.7162   19.8002 H   0  0  0  0  0  0  0  0  0  0  0  0
   -5.2715  -15.2060   19.3637 H   0  0  0  0  0  0  0  0  0  0  0  0
   -6.9277  -17.8408   22.9228 H   0  0  0  0  0  0  0  0  0  0  0  0
   -6.7279  -15.8255   24.7106 H   0  0  0  0  0  0  0  0  0  0  0  0
   -5.5532  -14.6575   24.1316 H   0  0  0  0  0  0  0  0  0  0  0  0
   -4.0068  -15.1955   25.8643 H   0  0  0  0  0  0  0  0  0  0  0  0
   -5.5332  -15.6167   26.7013 H   0  0  0  0  0  0  0  0  0  0  0  0
   -3.9283  -17.6169   27.8614 H   0  0  0  0  0  0  0  0  0  0  0  0
   -3.1790  -19.9560   27.4114 H   0  0  0  0  0  0  0  0  0  0  0  0
   -3.3356  -20.8880   25.1268 H   0  0  0  0  0  0  0  0  0  0  0  0
   -4.1773  -19.5033   23.2499 H   0  0  0  0  0  0  0  0  0  0  0  0
   -3.3656  -13.8432   18.3374 H   0  0  0  0  0  0  0  0  0  0  0  0
   -2.9575  -11.1460   19.5719 H   0  0  0  0  0  0  0  0  0  0  0  0
   -1.6159  -12.0812   18.9732 H   0  0  0  0  0  0  0  0  0  0  0  0
   -2.3222  -12.7045   16.1049 H   0  0  0  0  0  0  0  0  0  0  0  0
   -1.8238  -11.2936   14.1276 H   0  0  0  0  0  0  0  0  0  0  0  0
   -1.6970   -8.8078   14.3756 H   0  0  0  0  0  0  0  0  0  0  0  0
   -2.2413   -7.8426   16.6264 H   0  0  0  0  0  0  0  0  0  0  0  0
  1  2  2  0
  2  3  1  0
  3  4  1  0
  4  5  1  0
  5  6  2  0
  5  7  1  0
  7  8  1  0
  8  9  1  0
  9 10  1  0
 10 11  1  0
 11 12  2  0
 12 13  1  0
 13 14  2  0
 14 15  1  0
 15 16  2  0
  8 17  1  0
 17 18  2  0
  2 19  1  0
 19 20  1  0
 20 21  1  0
 21 22  2  0
 22 23  1  0
 23 24  2  0
 24 25  1  0
 25 26  2  0
 17  4  1  0
 26 21  1  0
 16  8  1  0
 16 11  1  0
  3 27  1  0
  3 28  1  0
  7 29  1  0
  9 30  1  0
  9 31  1  0
 10 32  1  0
 10 33  1  0
 12 34  1  0
 13 35  1  0
 14 36  1  0
 15 37  1  0
 19 38  1  0
 20 39  1  0
 20 40  1  0
 22 41  1  0
 23 42  1  0
 24 43  1  0
 25 44  1  0
M  END
>  <Energy>  (1098) 
21.620084112538532

>  <compound_id>  (1098) 
37520

>  <target_id>  (1098) 
1

>  <reference_id>  (1098) 
51

>  <inspiration_ids>  (1098) 
[51, 88]

>  <energy_score>  (1098) 
-11.86267322471781

>  <distance_score>  (1098) 
12.981961966510353

>  <path>  (1098) 
/opt/xchem-fragalysis-2/maxwin/BulkDock/SCRATCH/511020/C37520-P51/C37520-P51.minimised.mol

>  <scratch_subdir>  (1098) 
/opt/xchem-fragalysis-2/maxwin/BulkDock/SCRATCH/511020/C37520-P51

>  <fragmenstein_runtime>  (1098) 
92.62933111190796

>  <fragmenstein_outcome>  (1098) 
too moved

>  <fragmenstein_mode>  (1098) 
expansion

>  <fragmenstein_error>  (1098) 


$$$$
C37520-P88
     RDKit          3D

 44 47  0  0  0  0  0  0  0  0999 V2000
  -11.7133  -20.2955   20.2271 O   0  0  0  0  0  0  0  0  0  0  0  0
  -11.0995  -19.4542   20.8266 C   0  0  0  0  0  0  0  0  0  0  0  0
  -11.1945  -19.4711   22.4157 C   0  0  0  0  0  0  0  0  0  0  0  0
  -11.4834  -20.7105   23.2139 N   0  0  0  0  0  0  0  0  0  0  0  0
  -10.5857  -21.6962   23.3827 C   0  0  0  0  0  0  0  0  0  0  0  0
   -9.4512  -21.6884   22.9366 O   0  0  0  0  0  0  0  0  0  0  0  0
  -11.0405  -22.6293   24.2962 N   0  0  0  0  0  0  0  0  0  0  0  0
  -12.2047  -22.2018   25.0362 C   0  0  0  0  0  0  0  0  0  0  0  0
  -13.4898  -23.0378   24.8470 C   0  0  0  0  0  0  0  0  0  0  0  0
  -13.5078  -24.2145   25.8308 C   0  0  0  0  0  0  0  0  0  0  0  0
  -12.5968  -23.7288   26.9070 C   0  0  0  0  0  0  0  0  0  0  0  0
  -12.4528  -24.3279   28.1646 C   0  0  0  0  0  0  0  0  0  0  0  0
  -11.6990  -23.6836   29.1373 C   0  0  0  0  0  0  0  0  0  0  0  0
  -11.1222  -22.4531   28.8398 C   0  0  0  0  0  0  0  0  0  0  0  0
  -11.2411  -21.8915   27.5554 C   0  0  0  0  0  0  0  0  0  0  0  0
  -11.9562  -22.5297   26.5390 C   0  0  0  0  0  0  0  0  0  0  0  0
  -12.4499  -20.8745   24.1863 C   0  0  0  0  0  0  0  0  0  0  0  0
  -13.4247  -20.1271   24.2090 O   0  0  0  0  0  0  0  0  0  0  0  0
  -10.2890  -18.3109   20.3299 N   0  0  0  0  0  0  0  0  0  0  0  0
   -9.9098  -17.9170   18.9485 C   0  0  0  0  0  0  0  0  0  0  0  0
   -9.1138  -16.6051   18.6734 C   0  0  0  0  0  0  0  0  0  0  0  0
   -8.1988  -16.5406   17.5987 C   0  0  0  0  0  0  0  0  0  0  0  0
   -7.5259  -15.3424   17.2836 C   0  0  0  0  0  0  0  0  0  0  0  0
   -7.7608  -14.2210   18.0557 C   0  0  0  0  0  0  0  0  0  0  0  0
   -8.6525  -14.3683   19.1081 C   0  0  0  0  0  0  0  0  0  0  0  0
   -9.3660  -15.4962   19.4065 N   0  0  0  0  0  0  0  0  0  0  0  0
  -10.2303  -19.1000   22.7624 H   0  0  0  0  0  0  0  0  0  0  0  0
  -11.9540  -18.7259   22.6778 H   0  0  0  0  0  0  0  0  0  0  0  0
  -10.3125  -23.1900   24.7206 H   0  0  0  0  0  0  0  0  0  0  0  0
  -13.6038  -23.3513   23.8151 H   0  0  0  0  0  0  0  0  0  0  0  0
  -14.3682  -22.4138   25.0703 H   0  0  0  0  0  0  0  0  0  0  0  0
  -14.5231  -24.3716   26.2109 H   0  0  0  0  0  0  0  0  0  0  0  0
  -13.1492  -25.1583   25.4186 H   0  0  0  0  0  0  0  0  0  0  0  0
  -12.9613  -25.2593   28.3925 H   0  0  0  0  0  0  0  0  0  0  0  0
  -11.6013  -24.1012   30.1350 H   0  0  0  0  0  0  0  0  0  0  0  0
  -10.6024  -21.9013   29.6171 H   0  0  0  0  0  0  0  0  0  0  0  0
  -10.8430  -20.8920   27.4208 H   0  0  0  0  0  0  0  0  0  0  0  0
   -9.8432  -17.8532   21.1147 H   0  0  0  0  0  0  0  0  0  0  0  0
  -10.8386  -17.8764   18.3684 H   0  0  0  0  0  0  0  0  0  0  0  0
   -9.3289  -18.7627   18.5622 H   0  0  0  0  0  0  0  0  0  0  0  0
   -8.0161  -17.4237   16.9905 H   0  0  0  0  0  0  0  0  0  0  0  0
   -6.8313  -15.3073   16.4494 H   0  0  0  0  0  0  0  0  0  0  0  0
   -7.2537  -13.2813   17.8799 H   0  0  0  0  0  0  0  0  0  0  0  0
   -8.8076  -13.5739   19.8270 H   0  0  0  0  0  0  0  0  0  0  0  0
  1  2  2  0
  2  3  1  0
  3  4  1  0
  4  5  1  0
  5  6  2  0
  5  7  1  0
  7  8  1  0
  8  9  1  0
  9 10  1  0
 10 11  1  0
 11 12  2  0
 12 13  1  0
 13 14  2  0
 14 15  1  0
 15 16  2  0
  8 17  1  0
 17 18  2  0
  2 19  1  0
 19 20  1  0
 20 21  1  0
 21 22  2  0
 22 23  1  0
 23 24  2  0
 24 25  1  0
 25 26  2  0
 17  4  1  0
 26 21  1  0
 16  8  1  0
 16 11  1  0
  3 27  1  0
  3 28  1  0
  7 29  1  0
  9 30  1  0
  9 31  1  0
 10 32  1  0
 10 33  1  0
 12 34  1  0
 13 35  1  0
 14 36  1  0
 15 37  1  0
 19 38  1  0
 20 39  1  0
 20 40  1  0
 22 41  1  0
 23 42  1  0
 24 43  1  0
 25 44  1  0
M  END
>  <Energy>  (1099) 
36.260767196003044

>  <compound_id>  (1099) 
37520

>  <target_id>  (1099) 
1

>  <reference_id>  (1099) 
88

>  <inspiration_ids>  (1099) 
[51, 88]

>  <energy_score>  (1099) 
2.7780098587478506

>  <distance_score>  (1099) 
12.714052401251555

>  <path>  (1099) 
/opt/xchem-fragalysis-2/maxwin/BulkDock/SCRATCH/511020/C37520-P88/C37520-P88.minimised.mol

>  <scratch_subdir>  (1099) 
/opt/xchem-fragalysis-2/maxwin/BulkDock/SCRATCH/511020/C37520-P88

>  <fragmenstein_runtime>  (1099) 
55.007741928100586

>  <fragmenstein_outcome>  (1099) 
too moved

>  <fragmenstein_mode>  (1099) 
expansion

>  <fragmenstein_error>  (1099) 


$$$$
C37520-P51
     RDKit          3D

 44 47  0  0  0  0  0  0  0  0999 V2000
   -4.2080  -13.0948   21.3307 O   0  0  0  0  0  0  0  0  0  0  0  0
   -4.0453  -13.6154   20.2586 C   0  0  0  0  0  0  0  0  0  0  0  0
   -4.4937  -15.1504   20.1323 C   0  0  0  0  0  0  0  0  0  0  0  0
   -5.0036  -15.8372   21.3694 N   0  0  0  0  0  0  0  0  0  0  0  0
   -6.1250  -16.6224   21.4491 C   0  0  0  0  0  0  0  0  0  0  0  0
   -6.9775  -16.8526   20.6062 O   0  0  0  0  0  0  0  0  0  0  0  0
   -6.1544  -17.2426   22.6777 N   0  0  0  0  0  0  0  0  0  0  0  0
   -5.1230  -16.7632   23.5561 C   0  0  0  0  0  0  0  0  0  0  0  0
   -5.6571  -15.6774   24.5202 C   0  0  0  0  0  0  0  0  0  0  0  0
   -4.8924  -15.8393   25.8432 C   0  0  0  0  0  0  0  0  0  0  0  0
   -4.4763  -17.2771   25.8038 C   0  0  0  0  0  0  0  0  0  0  0  0
   -3.9937  -18.0368   26.8622 C   0  0  0  0  0  0  0  0  0  0  0  0
   -3.5852  -19.3455   26.6112 C   0  0  0  0  0  0  0  0  0  0  0  0
   -3.6614  -19.8678   25.3163 C   0  0  0  0  0  0  0  0  0  0  0  0
   -4.1322  -19.0852   24.2517 C   0  0  0  0  0  0  0  0  0  0  0  0
   -4.5484  -17.7857   24.4990 C   0  0  0  0  0  0  0  0  0  0  0  0
   -4.2243  -16.1176   22.4797 C   0  0  0  0  0  0  0  0  0  0  0  0
   -3.0361  -15.8454   22.5935 O   0  0  0  0  0  0  0  0  0  0  0  0
   -3.3983  -13.1037   19.0267 N   0  0  0  0  0  0  0  0  0  0  0  0
   -2.6650  -11.8311   18.7678 C   0  0  0  0  0  0  0  0  0  0  0  0
   -2.6415  -11.0342   17.4277 C   0  0  0  0  0  0  0  0  0  0  0  0
   -2.3631  -11.6241   16.1978 C   0  0  0  0  0  0  0  0  0  0  0  0
   -2.0471  -10.8226   15.0818 C   0  0  0  0  0  0  0  0  0  0  0  0
   -1.9641   -9.4425   15.2112 C   0  0  0  0  0  0  0  0  0  0  0  0
   -2.2650   -8.9139   16.4496 C   0  0  0  0  0  0  0  0  0  0  0  0
   -2.6112   -9.6663   17.5315 N   0  0  0  0  0  0  0  0  0  0  0  0
   -3.6159  -15.7162   19.8002 H   0  0  0  0  0  0  0  0  0  0  0  0
   -5.2715  -15.2060   19.3637 H   0  0  0  0  0  0  0  0  0  0  0  0
   -6.9277  -17.8408   22.9228 H   0  0  0  0  0  0  0  0  0  0  0  0
   -6.7279  -15.8255   24.7106 H   0  0  0  0  0  0  0  0  0  0  0  0
   -5.5532  -14.6575   24.1316 H   0  0  0  0  0  0  0  0  0  0  0  0
   -4.0068  -15.1955   25.8643 H   0  0  0  0  0  0  0  0  0  0  0  0
   -5.5332  -15.6167   26.7013 H   0  0  0  0  0  0  0  0  0  0  0  0
   -3.9283  -17.6169   27.8614 H   0  0  0  0  0  0  0  0  0  0  0  0
   -3.1790  -19.9560   27.4114 H   0  0  0  0  0  0  0  0  0  0  0  0
   -3.3356  -20.8880   25.1268 H   0  0  0  0  0  0  0  0  0  0  0  0
   -4.1773  -19.5033   23.2499 H   0  0  0  0  0  0  0  0  0  0  0  0
   -3.3656  -13.8432   18.3374 H   0  0  0  0  0  0  0  0  0  0  0  0
   -2.9575  -11.1460   19.5719 H   0  0  0  0  0  0  0  0  0  0  0  0
   -1.6159  -12.0812   18.9732 H   0  0  0  0  0  0  0  0  0  0  0  0
   -2.3222  -12.7045   16.1049 H   0  0  0  0  0  0  0  0  0  0  0  0
   -1.8238  -11.2936   14.1276 H   0  0  0  0  0  0  0  0  0  0  0  0
   -1.6970   -8.8078   14.3756 H   0  0  0  0  0  0  0  0  0  0  0  0
   -2.2413   -7.8426   16.6264 H   0  0  0  0  0  0  0  0  0  0  0  0
  1  2  2  0
  2  3  1  0
  3  4  1  0
  4  5  1  0
  5  6  2  0
  5  7  1  0
  7  8  1  0
  8  9  1  0
  9 10  1  0
 10 11  1  0
 11 12  2  0
 12 13  1  0
 13 14  2  0
 14 15  1  0
 15 16  2  0
  8 17  1  0
 17 18  2  0
  2 19  1  0
 19 20  1  0
 20 21  1  0
 21 22  2  0
 22 23  1  0
 23 24  2  0
 24 25  1  0
 25 26  2  0
 17  4  1  0
 26 21  1  0
 16  8  1  0
 16 11  1  0
  3 27  1  0
  3 28  1  0
  7 29  1  0
  9 30  1  0
  9 31  1  0
 10 32  1  0
 10 33  1  0
 12 34  1  0
 13 35  1  0
 14 36  1  0
 15 37  1  0
 19 38  1  0
 20 39  1  0
 20 40  1  0
 22 41  1  0
 23 42  1  0
 24 43  1  0
 25 44  1  0
M  END
>  <Energy>  (1100) 
21.620084112538532

>  <compound_id>  (1100) 
37520

>  <target_id>  (1100) 
1

>  <reference_id>  (1100) 
51

>  <inspiration_ids>  (1100) 
[51, 88]

>  <energy_score>  (1100) 
-11.86267322471781

>  <distance_score>  (1100) 
12.981961966510353

>  <path>  (1100) 
/opt/xchem-fragalysis-2/maxwin/BulkDock/SCRATCH/511020/C37520-P51/C37520-P51.minimised.mol

>  <scratch_subdir>  (1100) 
/opt/xchem-fragalysis-2/maxwin/BulkDock/SCRATCH/511020/C37520-P51

>  <fragmenstein_runtime>  (1100) 
88.85262060165405

>  <fragmenstein_outcome>  (1100) 
too moved

>  <fragmenstein_mode>  (1100) 
expansion

>  <fragmenstein_error>  (1100) 


$$$$
C37520-P88
     RDKit          3D

 44 47  0  0  0  0  0  0  0  0999 V2000
  -11.7133  -20.2955   20.2271 O   0  0  0  0  0  0  0  0  0  0  0  0
  -11.0995  -19.4542   20.8266 C   0  0  0  0  0  0  0  0  0  0  0  0
  -11.1945  -19.4711   22.4157 C   0  0  0  0  0  0  0  0  0  0  0  0
  -11.4834  -20.7105   23.2139 N   0  0  0  0  0  0  0  0  0  0  0  0
  -10.5857  -21.6962   23.3827 C   0  0  0  0  0  0  0  0  0  0  0  0
   -9.4512  -21.6884   22.9366 O   0  0  0  0  0  0  0  0  0  0  0  0
  -11.0405  -22.6293   24.2962 N   0  0  0  0  0  0  0  0  0  0  0  0
  -12.2047  -22.2018   25.0362 C   0  0  0  0  0  0  0  0  0  0  0  0
  -13.4898  -23.0378   24.8470 C   0  0  0  0  0  0  0  0  0  0  0  0
  -13.5078  -24.2145   25.8308 C   0  0  0  0  0  0  0  0  0  0  0  0
  -12.5968  -23.7288   26.9070 C   0  0  0  0  0  0  0  0  0  0  0  0
  -12.4528  -24.3279   28.1646 C   0  0  0  0  0  0  0  0  0  0  0  0
  -11.6990  -23.6836   29.1373 C   0  0  0  0  0  0  0  0  0  0  0  0
  -11.1222  -22.4531   28.8398 C   0  0  0  0  0  0  0  0  0  0  0  0
  -11.2411  -21.8915   27.5554 C   0  0  0  0  0  0  0  0  0  0  0  0
  -11.9562  -22.5297   26.5390 C   0  0  0  0  0  0  0  0  0  0  0  0
  -12.4499  -20.8745   24.1863 C   0  0  0  0  0  0  0  0  0  0  0  0
  -13.4247  -20.1271   24.2090 O   0  0  0  0  0  0  0  0  0  0  0  0
  -10.2890  -18.3109   20.3299 N   0  0  0  0  0  0  0  0  0  0  0  0
   -9.9098  -17.9170   18.9485 C   0  0  0  0  0  0  0  0  0  0  0  0
   -9.1138  -16.6051   18.6734 C   0  0  0  0  0  0  0  0  0  0  0  0
   -8.1988  -16.5406   17.5987 C   0  0  0  0  0  0  0  0  0  0  0  0
   -7.5259  -15.3424   17.2836 C   0  0  0  0  0  0  0  0  0  0  0  0
   -7.7608  -14.2210   18.0557 C   0  0  0  0  0  0  0  0  0  0  0  0
   -8.6525  -14.3683   19.1081 C   0  0  0  0  0  0  0  0  0  0  0  0
   -9.3660  -15.4962   19.4065 N   0  0  0  0  0  0  0  0  0  0  0  0
  -10.2303  -19.1000   22.7624 H   0  0  0  0  0  0  0  0  0  0  0  0
  -11.9540  -18.7259   22.6778 H   0  0  0  0  0  0  0  0  0  0  0  0
  -10.3125  -23.1900   24.7206 H   0  0  0  0  0  0  0  0  0  0  0  0
  -13.6038  -23.3513   23.8151 H   0  0  0  0  0  0  0  0  0  0  0  0
  -14.3682  -22.4138   25.0703 H   0  0  0  0  0  0  0  0  0  0  0  0
  -14.5231  -24.3716   26.2109 H   0  0  0  0  0  0  0  0  0  0  0  0
  -13.1492  -25.1583   25.4186 H   0  0  0  0  0  0  0  0  0  0  0  0
  -12.9613  -25.2593   28.3925 H   0  0  0  0  0  0  0  0  0  0  0  0
  -11.6013  -24.1012   30.1350 H   0  0  0  0  0  0  0  0  0  0  0  0
  -10.6024  -21.9013   29.6171 H   0  0  0  0  0  0  0  0  0  0  0  0
  -10.8430  -20.8920   27.4208 H   0  0  0  0  0  0  0  0  0  0  0  0
   -9.8432  -17.8532   21.1147 H   0  0  0  0  0  0  0  0  0  0  0  0
  -10.8386  -17.8764   18.3684 H   0  0  0  0  0  0  0  0  0  0  0  0
   -9.3289  -18.7627   18.5622 H   0  0  0  0  0  0  0  0  0  0  0  0
   -8.0161  -17.4237   16.9905 H   0  0  0  0  0  0  0  0  0  0  0  0
   -6.8313  -15.3073   16.4494 H   0  0  0  0  0  0  0  0  0  0  0  0
   -7.2537  -13.2813   17.8799 H   0  0  0  0  0  0  0  0  0  0  0  0
   -8.8076  -13.5739   19.8270 H   0  0  0  0  0  0  0  0  0  0  0  0
  1  2  2  0
  2  3  1  0
  3  4  1  0
  4  5  1  0
  5  6  2  0
  5  7  1  0
  7  8  1  0
  8  9  1  0
  9 10  1  0
 10 11  1  0
 11 12  2  0
 12 13  1  0
 13 14  2  0
 14 15  1  0
 15 16  2  0
  8 17  1  0
 17 18  2  0
  2 19  1  0
 19 20  1  0
 20 21  1  0
 21 22  2  0
 22 23  1  0
 23 24  2  0
 24 25  1  0
 25 26  2  0
 17  4  1  0
 26 21  1  0
 16  8  1  0
 16 11  1  0
  3 27  1  0
  3 28  1  0
  7 29  1  0
  9 30  1  0
  9 31  1  0
 10 32  1  0
 10 33  1  0
 12 34  1  0
 13 35  1  0
 14 36  1  0
 15 37  1  0
 19 38  1  0
 20 39  1  0
 20 40  1  0
 22 41  1  0
 23 42  1  0
 24 43  1  0
 25 44  1  0
M  END
>  <Energy>  (1101) 
36.260767196003044

>  <compound_id>  (1101) 
37520

>  <target_id>  (1101) 
1

>  <reference_id>  (1101) 
88

>  <inspiration_ids>  (1101) 
[51, 88]

>  <energy_score>  (1101) 
2.7780098587478506

>  <distance_score>  (1101) 
12.714052401251555

>  <path>  (1101) 
/opt/xchem-fragalysis-2/maxwin/BulkDock/SCRATCH/511020/C37520-P88/C37520-P88.minimised.mol

>  <scratch_subdir>  (1101) 
/opt/xchem-fragalysis-2/maxwin/BulkDock/SCRATCH/511020/C37520-P88

>  <fragmenstein_runtime>  (1101) 
55.32050704956055

>  <fragmenstein_outcome>  (1101) 
too moved

>  <fragmenstein_mode>  (1101) 
expansion

>  <fragmenstein_error>  (1101) 


$$$$
C49465-P116
     RDKit          3D

 51 52  0  0  0  0  0  0  0  0999 V2000
   13.2560   -4.2336   19.8105 C   0  0  0  0  0  0  0  0  0  0  0  0
   14.3793   -5.1074   20.0039 N   0  0  0  0  0  0  0  0  0  0  0  0
   15.4238   -5.1537   19.1221 C   0  0  0  0  0  0  0  0  0  0  0  0
   16.3420   -6.0046   19.5060 N   0  0  0  0  0  0  0  0  0  0  0  0
   15.8486   -6.5510   20.6607 C   0  0  0  0  0  0  0  0  0  0  0  0
   14.6295   -6.0025   21.0213 C   0  0  0  0  0  0  0  0  0  0  0  0
   13.8107   -6.2161   22.2688 C   0  0  0  0  0  0  0  0  0  0  0  0
   12.8650   -7.4598   22.3042 C   0  0  0  0  0  0  0  0  0  0  0  0
   11.5826   -7.1839   21.5228 C   0  0  0  0  0  0  0  0  0  0  0  0
   11.2850   -6.0322   21.3776 O   0  0  0  0  0  0  0  0  0  0  0  0
   10.9679   -8.4045   20.9862 N   0  0  0  0  0  0  0  0  0  0  0  0
    9.6923   -8.6131   19.8805 C   0  0  0  0  0  0  0  0  0  0  0  0
    8.5538   -9.8620   18.8259 C   0  0  0  0  0  0  0  0  0  0  0  0
    6.8601  -10.9040   19.3830 C   0  0  0  0  0  0  0  0  0  0  0  0
    5.6421  -11.7820   20.6722 C   0  0  0  0  0  0  0  0  0  0  0  0
    4.1247  -11.6546   22.1532 C   0  0  0  0  0  0  0  0  0  0  0  0
    3.0415  -12.6291   23.5150 N   0  0  0  0  0  0  0  0  0  0  0  0
    3.6316  -13.5507   24.9938 C   0  0  0  0  0  0  0  0  0  0  0  0
    2.6768  -13.6863   26.5956 C   0  0  0  0  0  0  0  0  0  0  0  0
    1.3048  -13.2775   26.6251 N   0  0  0  0  0  0  0  0  0  0  0  0
    0.9784  -12.3194   25.5932 C   0  0  0  0  0  0  0  0  0  0  0  0
    1.5067  -12.4377   24.0503 C   0  0  0  0  0  0  0  0  0  0  0  0
   13.6136   -3.2889   19.3912 H   0  0  0  0  0  0  0  0  0  0  0  0
   12.7691   -4.0316   20.7640 H   0  0  0  0  0  0  0  0  0  0  0  0
   12.5903   -4.7197   19.1010 H   0  0  0  0  0  0  0  0  0  0  0  0
   15.4561   -4.5558   18.2216 H   0  0  0  0  0  0  0  0  0  0  0  0
   16.4157   -7.2964   21.2024 H   0  0  0  0  0  0  0  0  0  0  0  0
   13.2658   -5.3022   22.5301 H   0  0  0  0  0  0  0  0  0  0  0  0
   14.5298   -6.3541   23.0889 H   0  0  0  0  0  0  0  0  0  0  0  0
   12.5709   -7.6614   23.3404 H   0  0  0  0  0  0  0  0  0  0  0  0
   13.3815   -8.3407   21.9104 H   0  0  0  0  0  0  0  0  0  0  0  0
   11.4357   -9.2171   21.3863 H   0  0  0  0  0  0  0  0  0  0  0  0
    9.2206   -7.6606   19.9168 H   0  0  0  0  0  0  0  0  0  0  0  0
    9.5108   -8.8409   20.8647 H   0  0  0  0  0  0  0  0  0  0  0  0
    8.5369   -9.7711   17.7554 H   0  0  0  0  0  0  0  0  0  0  0  0
    9.3411  -10.6328   18.5325 H   0  0  0  0  0  0  0  0  0  0  0  0
    6.1608  -10.6871   18.6196 H   0  0  0  0  0  0  0  0  0  0  0  0
    7.0358  -10.4354   20.2723 H   0  0  0  0  0  0  0  0  0  0  0  0
    5.2235  -12.5735   20.0171 H   0  0  0  0  0  0  0  0  0  0  0  0
    6.5477  -12.2810   21.0905 H   0  0  0  0  0  0  0  0  0  0  0  0
    4.9195  -11.3305   22.8520 H   0  0  0  0  0  0  0  0  0  0  0  0
    3.7290  -12.5307   21.6239 H   0  0  0  0  0  0  0  0  0  0  0  0
    3.9331  -14.5465   24.6492 H   0  0  0  0  0  0  0  0  0  0  0  0
    4.6300  -13.1798   25.3014 H   0  0  0  0  0  0  0  0  0  0  0  0
    2.6594  -14.6410   27.1253 H   0  0  0  0  0  0  0  0  0  0  0  0
    3.1904  -13.1753   27.4229 H   0  0  0  0  0  0  0  0  0  0  0  0
    1.0253  -12.9406   27.5434 H   0  0  0  0  0  0  0  0  0  0  0  0
    1.0288  -11.2949   25.9641 H   0  0  0  0  0  0  0  0  0  0  0  0
   -0.0775  -12.5420   25.6290 H   0  0  0  0  0  0  0  0  0  0  0  0
    0.8178  -12.0001   23.3309 H   0  0  0  0  0  0  0  0  0  0  0  0
    1.0012  -13.3699   23.8837 H   0  0  0  0  0  0  0  0  0  0  0  0
  1  2  1  0
  2  3  1  0
  3  4  2  0
  4  5  1  0
  5  6  2  0
  6  7  1  0
  7  8  1  0
  8  9  1  0
  9 10  2  0
  9 11  1  0
 11 12  1  0
 12 13  1  0
 13 14  1  0
 14 15  1  0
 15 16  1  0
 16 17  1  0
 17 18  1  0
 18 19  1  0
 19 20  1  0
 20 21  1  0
 21 22  1  0
  6  2  1  0
 22 17  1  0
  1 23  1  0
  1 24  1  0
  1 25  1  0
  3 26  1  0
  5 27  1  0
  7 28  1  0
  7 29  1  0
  8 30  1  0
  8 31  1  0
 11 32  1  0
 12 33  1  0
 12 34  1  0
 13 35  1  0
 13 36  1  0
 14 37  1  0
 14 38  1  0
 15 39  1  0
 15 40  1  0
 16 41  1  0
 16 42  1  0
 18 43  1  0
 18 44  1  0
 19 45  1  0
 19 46  1  0
 20 47  1  0
 21 48  1  0
 21 49  1  0
 22 50  1  0
 22 51  1  0
M  END
>  <Energy>  (1102) 
788.26191855051127

>  <compound_id>  (1102) 
49465

>  <target_id>  (1102) 
1

>  <reference_id>  (1102) 
116

>  <inspiration_ids>  (1102) 
[116, 124]

>  <energy_score>  (1102) 
704.4496807620327

>  <distance_score>  (1102) 
7.000119588354518

>  <path>  (1102) 
/opt/xchem-fragalysis-2/maxwin/BulkDock/SCRATCH/511020/C49465-P116/C49465-P116.minimised.mol

>  <scratch_subdir>  (1102) 
/opt/xchem-fragalysis-2/maxwin/BulkDock/SCRATCH/511020/C49465-P116

>  <fragmenstein_runtime>  (1102) 
26.942097425460815

>  <fragmenstein_outcome>  (1102) 
too moved

>  <fragmenstein_mode>  (1102) 
expansion

>  <fragmenstein_error>  (1102) 


$$$$
C49465-P124
     RDKit          3D

 51 52  0  0  0  0  0  0  0  0999 V2000
   14.3311   -2.5323   16.8466 C   0  0  0  0  0  0  0  0  0  0  0  0
   15.3518   -3.5010   17.1424 N   0  0  0  0  0  0  0  0  0  0  0  0
   16.1621   -4.0385   16.1830 C   0  0  0  0  0  0  0  0  0  0  0  0
   17.0223   -4.8802   16.7011 N   0  0  0  0  0  0  0  0  0  0  0  0
   16.7910   -4.8482   18.0493 C   0  0  0  0  0  0  0  0  0  0  0  0
   15.7220   -4.0309   18.3613 C   0  0  0  0  0  0  0  0  0  0  0  0
   15.0966   -3.7474   19.6964 C   0  0  0  0  0  0  0  0  0  0  0  0
   14.2000   -4.8832   20.2600 C   0  0  0  0  0  0  0  0  0  0  0  0
   12.8370   -4.8895   19.5665 C   0  0  0  0  0  0  0  0  0  0  0  0
   12.7785   -4.4197   18.4601 O   0  0  0  0  0  0  0  0  0  0  0  0
   11.7718   -5.4071   20.4509 N   0  0  0  0  0  0  0  0  0  0  0  0
    9.9623   -5.4172   20.2559 C   0  0  0  0  0  0  0  0  0  0  0  0
    8.0845   -4.6303   20.9195 C   0  0  0  0  0  0  0  0  0  0  0  0
    7.2966   -5.2468   22.6916 C   0  0  0  0  0  0  0  0  0  0  0  0
    6.0059   -6.5788   23.2231 C   0  0  0  0  0  0  0  0  0  0  0  0
    4.1904   -7.2857   23.6538 C   0  0  0  0  0  0  0  0  0  0  0  0
    2.2207   -7.6411   23.6482 N   0  0  0  0  0  0  0  0  0  0  0  0
    1.0651   -8.0616   22.2861 C   0  0  0  0  0  0  0  0  0  0  0  0
   -0.4435   -7.9885   22.6250 C   0  0  0  0  0  0  0  0  0  0  0  0
   -0.6844   -7.5730   24.0072 N   0  0  0  0  0  0  0  0  0  0  0  0
   -0.3387   -6.2064   24.1917 C   0  0  0  0  0  0  0  0  0  0  0  0
    1.1412   -6.0519   23.8051 C   0  0  0  0  0  0  0  0  0  0  0  0
   14.6843   -1.8787   16.0434 H   0  0  0  0  0  0  0  0  0  0  0  0
   13.4269   -3.0508   16.5237 H   0  0  0  0  0  0  0  0  0  0  0  0
   14.1555   -1.9259   17.7328 H   0  0  0  0  0  0  0  0  0  0  0  0
   16.0847   -3.7890   15.1323 H   0  0  0  0  0  0  0  0  0  0  0  0
   17.3858   -5.4456   18.7289 H   0  0  0  0  0  0  0  0  0  0  0  0
   14.5398   -2.8052   19.6807 H   0  0  0  0  0  0  0  0  0  0  0  0
   15.9170   -3.5929   20.4102 H   0  0  0  0  0  0  0  0  0  0  0  0
   14.6762   -5.8610   20.1480 H   0  0  0  0  0  0  0  0  0  0  0  0
   14.0473   -4.6937   21.3288 H   0  0  0  0  0  0  0  0  0  0  0  0
   12.1943   -5.8022   21.2800 H   0  0  0  0  0  0  0  0  0  0  0  0
    9.8253   -5.7055   19.2442 H   0  0  0  0  0  0  0  0  0  0  0  0
   10.6412   -4.5735   20.6507 H   0  0  0  0  0  0  0  0  0  0  0  0
    8.0568   -3.5749   21.1215 H   0  0  0  0  0  0  0  0  0  0  0  0
    7.3960   -4.7835   20.0740 H   0  0  0  0  0  0  0  0  0  0  0  0
    8.0584   -5.5904   23.3592 H   0  0  0  0  0  0  0  0  0  0  0  0
    7.0296   -4.3059   23.1910 H   0  0  0  0  0  0  0  0  0  0  0  0
    6.2023   -7.0485   22.2935 H   0  0  0  0  0  0  0  0  0  0  0  0
    6.5945   -7.1372   23.9535 H   0  0  0  0  0  0  0  0  0  0  0  0
    4.6582   -7.8116   24.5225 H   0  0  0  0  0  0  0  0  0  0  0  0
    4.2482   -8.0213   22.8858 H   0  0  0  0  0  0  0  0  0  0  0  0
    1.0438   -7.2869   21.4896 H   0  0  0  0  0  0  0  0  0  0  0  0
    1.3476   -8.9303   21.6982 H   0  0  0  0  0  0  0  0  0  0  0  0
   -0.9537   -7.2877   21.9484 H   0  0  0  0  0  0  0  0  0  0  0  0
   -0.9001   -8.9531   22.3823 H   0  0  0  0  0  0  0  0  0  0  0  0
    0.0502   -8.0368   24.5643 H   0  0  0  0  0  0  0  0  0  0  0  0
   -0.4885   -5.9365   25.2438 H   0  0  0  0  0  0  0  0  0  0  0  0
   -0.9764   -5.5351   23.6045 H   0  0  0  0  0  0  0  0  0  0  0  0
    1.5370   -5.3496   24.5526 H   0  0  0  0  0  0  0  0  0  0  0  0
    1.0732   -5.4948   22.8503 H   0  0  0  0  0  0  0  0  0  0  0  0
  1  2  1  0
  2  3  1  0
  3  4  2  0
  4  5  1  0
  5  6  2  0
  6  7  1  0
  7  8  1  0
  8  9  1  0
  9 10  2  0
  9 11  1  0
 11 12  1  0
 12 13  1  0
 13 14  1  0
 14 15  1  0
 15 16  1  0
 16 17  1  0
 17 18  1  0
 18 19  1  0
 19 20  1  0
 20 21  1  0
 21 22  1  0
  6  2  1  0
 22 17  1  0
  1 23  1  0
  1 24  1  0
  1 25  1  0
  3 26  1  0
  5 27  1  0
  7 28  1  0
  7 29  1  0
  8 30  1  0
  8 31  1  0
 11 32  1  0
 12 33  1  0
 12 34  1  0
 13 35  1  0
 13 36  1  0
 14 37  1  0
 14 38  1  0
 15 39  1  0
 15 40  1  0
 16 41  1  0
 16 42  1  0
 18 43  1  0
 18 44  1  0
 19 45  1  0
 19 46  1  0
 20 47  1  0
 21 48  1  0
 21 49  1  0
 22 50  1  0
 22 51  1  0
M  END
>  <Energy>  (1103) 
742.39419785012274

>  <compound_id>  (1103) 
49465

>  <target_id>  (1103) 
1

>  <reference_id>  (1103) 
124

>  <inspiration_ids>  (1103) 
[116, 124]

>  <energy_score>  (1103) 
658.5819600616456

>  <distance_score>  (1103) 
6.355386326752988

>  <path>  (1103) 
/opt/xchem-fragalysis-2/maxwin/BulkDock/SCRATCH/511020/C49465-P124/C49465-P124.minimised.mol

>  <scratch_subdir>  (1103) 
/opt/xchem-fragalysis-2/maxwin/BulkDock/SCRATCH/511020/C49465-P124

>  <fragmenstein_runtime>  (1103) 
26.43156385421753

>  <fragmenstein_outcome>  (1103) 
too moved

>  <fragmenstein_mode>  (1103) 
expansion

>  <fragmenstein_error>  (1103) 


$$$$
C49803-P69
     RDKit          3D

 42 45  0  0  0  0  0  0  0  0999 V2000
   -1.8988    2.7041   23.5726 O   0  0  0  0  0  0  0  0  0  0  0  0
   -1.7922    3.5400   24.3978 C   0  0  0  0  0  0  0  0  0  0  0  0
   -1.6003    3.1009   25.8008 C   0  0  0  0  0  0  0  0  0  0  0  0
   -1.9288    1.8734   26.1628 N   0  0  0  0  0  0  0  0  0  0  0  0
   -1.4979    1.6257   27.4510 C   0  0  0  0  0  0  0  0  0  0  0  0
   -1.6535    0.4266   28.1646 C   0  0  0  0  0  0  0  0  0  0  0  0
   -1.0695    0.2896   29.4275 C   0  0  0  0  0  0  0  0  0  0  0  0
   -0.3060    1.3071   29.9761 C   0  0  0  0  0  0  0  0  0  0  0  0
   -0.1767    2.5226   29.3070 C   0  0  0  0  0  0  0  0  0  0  0  0
   -0.8070    2.6735   28.0565 C   0  0  0  0  0  0  0  0  0  0  0  0
   -0.8940    4.0535   27.0325 S   0  0  0  0  0  0  0  0  0  0  0  0
   -1.9170    5.0412   24.2897 N   0  0  0  0  0  0  0  0  0  0  0  0
   -2.3140    5.9138   23.1235 C   0  0  0  0  0  0  0  0  0  0  0  0
   -2.4912    7.4236   23.4042 C   0  0  0  0  0  0  0  0  0  0  0  0
   -1.1799    8.0411   23.5886 N   0  0  0  0  0  0  0  0  0  0  0  0
   -1.1936    9.4314   24.0657 C   0  0  0  0  0  0  0  0  0  0  0  0
   -1.7168    9.7025   25.4833 C   0  0  0  0  0  0  0  0  0  0  0  0
   -2.3128   11.1073   25.4263 C   0  0  0  0  0  0  0  0  0  0  0  0
   -2.0359   11.6203   24.0838 N   0  0  0  0  0  0  0  0  0  0  0  0
   -1.9888   10.4360   23.2199 C   0  0  0  0  0  0  0  0  0  0  0  0
   -0.3909    7.1564   24.4444 C   0  0  0  0  0  0  0  0  0  0  0  0
   -0.5609    5.6910   23.9757 C   0  0  0  0  0  0  0  0  0  0  0  0
   -2.2019   -0.4049   27.7295 H   0  0  0  0  0  0  0  0  0  0  0  0
   -1.2060   -0.6392   29.9767 H   0  0  0  0  0  0  0  0  0  0  0  0
    0.1637    1.1691   30.9468 H   0  0  0  0  0  0  0  0  0  0  0  0
    0.3839    3.3432   29.7453 H   0  0  0  0  0  0  0  0  0  0  0  0
   -1.8527    5.6634   22.1516 H   0  0  0  0  0  0  0  0  0  0  0  0
   -3.3406    5.5549   22.9420 H   0  0  0  0  0  0  0  0  0  0  0  0
   -3.0020    7.8734   22.5461 H   0  0  0  0  0  0  0  0  0  0  0  0
   -3.1326    7.5468   24.2815 H   0  0  0  0  0  0  0  0  0  0  0  0
   -0.1469    9.7726   24.0417 H   0  0  0  0  0  0  0  0  0  0  0  0
   -2.4906    8.9935   25.7933 H   0  0  0  0  0  0  0  0  0  0  0  0
   -0.9017    9.6417   26.2133 H   0  0  0  0  0  0  0  0  0  0  0  0
   -1.8787   11.7618   26.1880 H   0  0  0  0  0  0  0  0  0  0  0  0
   -3.3947   11.0611   25.5974 H   0  0  0  0  0  0  0  0  0  0  0  0
   -2.7705   12.2576   23.7812 H   0  0  0  0  0  0  0  0  0  0  0  0
   -1.4920   10.6562   22.2702 H   0  0  0  0  0  0  0  0  0  0  0  0
   -3.0092   10.0952   23.0127 H   0  0  0  0  0  0  0  0  0  0  0  0
   -0.6963    7.2233   25.4957 H   0  0  0  0  0  0  0  0  0  0  0  0
    0.6683    7.4308   24.3820 H   0  0  0  0  0  0  0  0  0  0  0  0
    0.1538    5.1295   24.5948 H   0  0  0  0  0  0  0  0  0  0  0  0
   -0.1488    5.4729   22.9735 H   0  0  0  0  0  0  0  0  0  0  0  0
  1  2  2  0
  2  3  1  0
  3  4  2  0
  4  5  1  0
  5  6  2  0
  6  7  1  0
  7  8  2  0
  8  9  1  0
  9 10  2  0
 10 11  1  0
  2 12  1  0
 12 13  1  0
 13 14  1  0
 14 15  1  0
 15 16  1  0
 16 17  1  0
 17 18  1  0
 18 19  1  0
 19 20  1  0
 15 21  1  0
 21 22  1  0
 11  3  1  0
 22 12  1  0
 10  5  1  0
 20 16  1  0
  6 23  1  0
  7 24  1  0
  8 25  1  0
  9 26  1  0
 13 27  1  0
 13 28  1  0
 14 29  1  0
 14 30  1  0
 16 31  1  0
 17 32  1  0
 17 33  1  0
 18 34  1  0
 18 35  1  0
 19 36  1  0
 20 37  1  0
 20 38  1  0
 21 39  1  0
 21 40  1  0
 22 41  1  0
 22 42  1  0
M  END
>  <Energy>  (1104) 
207.05479032963456

>  <compound_id>  (1104) 
49803

>  <target_id>  (1104) 
1

>  <reference_id>  (1104) 
69

>  <inspiration_ids>  (1104) 
[69, 70]

>  <energy_score>  (1104) 
35.44864395147914

>  <distance_score>  (1104) 
1.296908296537556

>  <path>  (1104) 
/opt/xchem-fragalysis-2/maxwin/BulkDock/SCRATCH/511020/C49803-P69/C49803-P69.minimised.mol

>  <scratch_subdir>  (1104) 
/opt/xchem-fragalysis-2/maxwin/BulkDock/SCRATCH/511020/C49803-P69

>  <fragmenstein_runtime>  (1104) 
10.865861177444458

>  <fragmenstein_outcome>  (1104) 
too moved

>  <fragmenstein_mode>  (1104) 
expansion

>  <fragmenstein_error>  (1104) 


$$$$
C49803-P70
     RDKit          3D

 42 45  0  0  0  0  0  0  0  0999 V2000
   -1.8235    2.5566   23.6209 O   0  0  0  0  0  0  0  0  0  0  0  0
   -1.8204    3.3396   24.5033 C   0  0  0  0  0  0  0  0  0  0  0  0
   -1.6738    2.8088   25.8805 C   0  0  0  0  0  0  0  0  0  0  0  0
   -1.9595    1.5426   26.1305 N   0  0  0  0  0  0  0  0  0  0  0  0
   -1.4328    1.1699   27.3485 C   0  0  0  0  0  0  0  0  0  0  0  0
   -1.4381   -0.1320   27.8840 C   0  0  0  0  0  0  0  0  0  0  0  0
   -0.7066   -0.4139   29.0385 C   0  0  0  0  0  0  0  0  0  0  0  0
   -0.0087    0.5944   29.6911 C   0  0  0  0  0  0  0  0  0  0  0  0
   -0.0496    1.9105   29.2193 C   0  0  0  0  0  0  0  0  0  0  0  0
   -0.7748    2.1823   28.0434 C   0  0  0  0  0  0  0  0  0  0  0  0
   -1.0117    3.6695   27.2019 S   0  0  0  0  0  0  0  0  0  0  0  0
   -2.0434    4.8323   24.4851 N   0  0  0  0  0  0  0  0  0  0  0  0
   -2.4369    5.7550   23.3556 C   0  0  0  0  0  0  0  0  0  0  0  0
   -2.7148    7.2323   23.7066 C   0  0  0  0  0  0  0  0  0  0  0  0
   -1.4515    7.9163   23.9892 N   0  0  0  0  0  0  0  0  0  0  0  0
   -1.6527    9.2836   24.4853 C   0  0  0  0  0  0  0  0  0  0  0  0
   -2.3694    9.4857   25.8182 C   0  0  0  0  0  0  0  0  0  0  0  0
   -2.0844   10.9494   26.1050 C   0  0  0  0  0  0  0  0  0  0  0  0
   -0.6984   11.1632   25.6793 N   0  0  0  0  0  0  0  0  0  0  0  0
   -0.3818   10.1361   24.6712 C   0  0  0  0  0  0  0  0  0  0  0  0
   -0.6757    7.0337   24.8586 C   0  0  0  0  0  0  0  0  0  0  0  0
   -0.7222    5.5896   24.2938 C   0  0  0  0  0  0  0  0  0  0  0  0
   -1.9625   -0.9277   27.3653 H   0  0  0  0  0  0  0  0  0  0  0  0
   -0.6738   -1.4345   29.4133 H   0  0  0  0  0  0  0  0  0  0  0  0
    0.5717    0.3607   30.5811 H   0  0  0  0  0  0  0  0  0  0  0  0
    0.4875    2.7035   29.7319 H   0  0  0  0  0  0  0  0  0  0  0  0
   -1.9128    5.5887   22.3974 H   0  0  0  0  0  0  0  0  0  0  0  0
   -3.4302    5.3502   23.1000 H   0  0  0  0  0  0  0  0  0  0  0  0
   -3.2126    7.7125   22.8561 H   0  0  0  0  0  0  0  0  0  0  0  0
   -3.3985    7.2704   24.5597 H   0  0  0  0  0  0  0  0  0  0  0  0
   -2.2486    9.8048   23.7195 H   0  0  0  0  0  0  0  0  0  0  0  0
   -3.4437    9.2884   25.7559 H   0  0  0  0  0  0  0  0  0  0  0  0
   -1.9468    8.8648   26.6153 H   0  0  0  0  0  0  0  0  0  0  0  0
   -2.2182   11.1948   27.1625 H   0  0  0  0  0  0  0  0  0  0  0  0
   -2.7546   11.5877   25.5170 H   0  0  0  0  0  0  0  0  0  0  0  0
   -0.5917   12.0962   25.2831 H   0  0  0  0  0  0  0  0  0  0  0  0
    0.4628    9.5533   25.0498 H   0  0  0  0  0  0  0  0  0  0  0  0
   -0.0726   10.5914   23.7239 H   0  0  0  0  0  0  0  0  0  0  0  0
   -1.0580    7.0173   25.8853 H   0  0  0  0  0  0  0  0  0  0  0  0
    0.3706    7.3544   24.8877 H   0  0  0  0  0  0  0  0  0  0  0  0
   -0.0053    5.0388   24.9194 H   0  0  0  0  0  0  0  0  0  0  0  0
   -0.2411    5.4635   23.3065 H   0  0  0  0  0  0  0  0  0  0  0  0
  1  2  2  0
  2  3  1  0
  3  4  2  0
  4  5  1  0
  5  6  2  0
  6  7  1  0
  7  8  2  0
  8  9  1  0
  9 10  2  0
 10 11  1  0
  2 12  1  0
 12 13  1  0
 13 14  1  0
 14 15  1  0
 15 16  1  0
 16 17  1  0
 17 18  1  0
 18 19  1  0
 19 20  1  0
 15 21  1  0
 21 22  1  0
 11  3  1  0
 22 12  1  0
 10  5  1  0
 20 16  1  0
  6 23  1  0
  7 24  1  0
  8 25  1  0
  9 26  1  0
 13 27  1  0
 13 28  1  0
 14 29  1  0
 14 30  1  0
 16 31  1  0
 17 32  1  0
 17 33  1  0
 18 34  1  0
 18 35  1  0
 19 36  1  0
 20 37  1  0
 20 38  1  0
 21 39  1  0
 21 40  1  0
 22 41  1  0
 22 42  1  0
M  END
>  <Energy>  (1105) 
209.29448411123525

>  <compound_id>  (1105) 
49803

>  <target_id>  (1105) 
1

>  <reference_id>  (1105) 
70

>  <inspiration_ids>  (1105) 
[69, 70]

>  <energy_score>  (1105) 
37.68833773308444

>  <distance_score>  (1105) 
1.2034422647297414

>  <path>  (1105) 
/opt/xchem-fragalysis-2/maxwin/BulkDock/SCRATCH/511020/C49803-P70/C49803-P70.minimised.mol

>  <scratch_subdir>  (1105) 
/opt/xchem-fragalysis-2/maxwin/BulkDock/SCRATCH/511020/C49803-P70

>  <fragmenstein_runtime>  (1105) 
8.363206624984741

>  <fragmenstein_outcome>  (1105) 
too moved

>  <fragmenstein_mode>  (1105) 
expansion

>  <fragmenstein_error>  (1105) 


$$$$
C49804-P69
     RDKit          3D

 46 49  0  0  0  0  0  0  0  0999 V2000
   -2.8654    5.2830   23.7363 C   0  0  0  0  0  0  0  0  0  0  0  0
   -3.0641    6.4813   23.0772 C   0  0  0  0  0  0  0  0  0  0  0  0
   -3.6639    6.5124   21.8098 C   0  0  0  0  0  0  0  0  0  0  0  0
   -4.0861    5.3081   21.2117 C   0  0  0  0  0  0  0  0  0  0  0  0
   -4.8141    5.0389   19.6584 S   0  0  0  0  0  0  0  0  0  0  0  0
   -4.9012    3.2977   19.9533 C   0  0  0  0  0  0  0  0  0  0  0  0
   -5.7047    2.3415   18.9709 C   0  0  0  0  0  0  0  0  0  0  0  0
   -5.4215    0.8901   18.0130 N   0  0  0  0  0  0  0  0  0  0  0  0
   -4.6900    0.3363   16.4576 C   0  0  0  0  0  0  0  0  0  0  0  0
   -5.7990   -0.8345   14.9785 C   0  0  0  0  0  0  0  0  0  0  0  0
   -6.0188   -0.4142   13.4282 N   0  0  0  0  0  0  0  0  0  0  0  0
   -6.8951   -0.2256   11.7462 C   0  0  0  0  0  0  0  0  0  0  0  0
   -8.3420    0.3063   10.7001 C   0  0  0  0  0  0  0  0  0  0  0  0
   -8.4788    0.3128    9.1467 C   0  0  0  0  0  0  0  0  0  0  0  0
   -8.0088   -0.9552    8.4821 C   0  0  0  0  0  0  0  0  0  0  0  0
   -6.6712   -1.2825    8.9192 N   0  0  0  0  0  0  0  0  0  0  0  0
   -6.1519   -0.3794    9.9597 C   0  0  0  0  0  0  0  0  0  0  0  0
   -5.8166    0.8733   14.7380 C   0  0  0  0  0  0  0  0  0  0  0  0
   -5.5132    1.5501   16.8612 C   0  0  0  0  0  0  0  0  0  0  0  0
   -4.4118    2.9785   21.1560 N   0  0  0  0  0  0  0  0  0  0  0  0
   -3.9331    4.0947   21.8695 C   0  0  0  0  0  0  0  0  0  0  0  0
   -3.2829    4.0994   23.1331 C   0  0  0  0  0  0  0  0  0  0  0  0
   -2.4042    5.2688   24.7201 H   0  0  0  0  0  0  0  0  0  0  0  0
   -2.7568    7.4122   23.5496 H   0  0  0  0  0  0  0  0  0  0  0  0
   -3.8004    7.4587   21.2949 H   0  0  0  0  0  0  0  0  0  0  0  0
   -6.5019    2.9647   18.5393 H   0  0  0  0  0  0  0  0  0  0  0  0
   -6.2271    1.7733   19.6985 H   0  0  0  0  0  0  0  0  0  0  0  0
   -3.8118    0.7066   16.0076 H   0  0  0  0  0  0  0  0  0  0  0  0
   -4.0286   -0.1300   17.2011 H   0  0  0  0  0  0  0  0  0  0  0  0
   -6.8339   -1.1574   15.2855 H   0  0  0  0  0  0  0  0  0  0  0  0
   -5.6094   -1.9202   14.9479 H   0  0  0  0  0  0  0  0  0  0  0  0
   -7.4590   -1.0655   12.0194 H   0  0  0  0  0  0  0  0  0  0  0  0
   -8.6592    1.3353   10.8857 H   0  0  0  0  0  0  0  0  0  0  0  0
   -9.1303   -0.4147   10.9075 H   0  0  0  0  0  0  0  0  0  0  0  0
   -7.9858    1.1956    8.7180 H   0  0  0  0  0  0  0  0  0  0  0  0
   -9.5410    0.4544    8.9016 H   0  0  0  0  0  0  0  0  0  0  0  0
   -8.6872   -1.7855    8.7033 H   0  0  0  0  0  0  0  0  0  0  0  0
   -8.0267   -0.8272    7.3937 H   0  0  0  0  0  0  0  0  0  0  0  0
   -6.0387   -1.2938    8.1197 H   0  0  0  0  0  0  0  0  0  0  0  0
   -6.2453    0.5662    9.4244 H   0  0  0  0  0  0  0  0  0  0  0  0
   -5.0452   -0.4578   10.0083 H   0  0  0  0  0  0  0  0  0  0  0  0
   -6.1228    1.7123   13.9990 H   0  0  0  0  0  0  0  0  0  0  0  0
   -6.8680    0.6797   14.6649 H   0  0  0  0  0  0  0  0  0  0  0  0
   -5.2504    2.5763   17.1096 H   0  0  0  0  0  0  0  0  0  0  0  0
   -6.6121    1.5820   17.3233 H   0  0  0  0  0  0  0  0  0  0  0  0
   -3.1045    3.1770   23.6596 H   0  0  0  0  0  0  0  0  0  0  0  0
  1  2  2  0
  2  3  1  0
  3  4  2  0
  4  5  1  0
  5  6  1  0
  6  7  1  0
  7  8  1  0
  8  9  1  0
  9 10  1  0
 10 11  1  0
 11 12  1  0
 12 13  1  0
 13 14  1  0
 14 15  1  0
 15 16  1  0
 16 17  1  0
 11 18  1  0
 18 19  1  0
  6 20  2  0
 20 21  1  0
 21 22  2  0
 22  1  1  0
 21  4  1  0
 19  8  1  0
 17 12  1  0
  1 23  1  0
  2 24  1  0
  3 25  1  0
  7 26  1  0
  7 27  1  0
  9 28  1  0
  9 29  1  0
 10 30  1  0
 10 31  1  0
 12 32  1  0
 13 33  1  0
 13 34  1  0
 14 35  1  0
 14 36  1  0
 15 37  1  0
 15 38  1  0
 16 39  1  0
 17 40  1  0
 17 41  1  0
 18 42  1  0
 18 43  1  0
 19 44  1  0
 19 45  1  0
 22 46  1  0
M  END
>  <Energy>  (1106) 
1176.985299816597

>  <compound_id>  (1106) 
49804

>  <target_id>  (1106) 
1

>  <reference_id>  (1106) 
69

>  <inspiration_ids>  (1106) 
[69, 70]

>  <energy_score>  (1106) 
968.7551430869711

>  <distance_score>  (1106) 
6.248921955828341

>  <path>  (1106) 
/opt/xchem-fragalysis-2/maxwin/BulkDock/SCRATCH/511020/C49804-P69/C49804-P69.minimised.mol

>  <scratch_subdir>  (1106) 
/opt/xchem-fragalysis-2/maxwin/BulkDock/SCRATCH/511020/C49804-P69

>  <fragmenstein_runtime>  (1106) 
12.706455707550049

>  <fragmenstein_outcome>  (1106) 
too moved

>  <fragmenstein_mode>  (1106) 
expansion

>  <fragmenstein_error>  (1106) 


$$$$
C49804-P70
     RDKit          3D

 46 49  0  0  0  0  0  0  0  0999 V2000
   -3.7801    5.1597   22.2768 C   0  0  0  0  0  0  0  0  0  0  0  0
   -4.1720    6.3482   21.6898 C   0  0  0  0  0  0  0  0  0  0  0  0
   -4.8762    6.3535   20.4719 C   0  0  0  0  0  0  0  0  0  0  0  0
   -5.1497    5.1340   19.8168 C   0  0  0  0  0  0  0  0  0  0  0  0
   -6.1225    4.7742   18.4408 S   0  0  0  0  0  0  0  0  0  0  0  0
   -5.5338    3.0932   18.3343 C   0  0  0  0  0  0  0  0  0  0  0  0
   -5.4079    1.9396   16.8698 C   0  0  0  0  0  0  0  0  0  0  0  0
   -5.6723    2.1732   14.7004 N   0  0  0  0  0  0  0  0  0  0  0  0
   -5.9079    4.1220   13.9340 C   0  0  0  0  0  0  0  0  0  0  0  0
   -7.1425    5.3905   13.5938 C   0  0  0  0  0  0  0  0  0  0  0  0
   -8.3891    5.0258   13.0033 N   0  0  0  0  0  0  0  0  0  0  0  0
   -8.7614    5.4530   11.6104 C   0  0  0  0  0  0  0  0  0  0  0  0
  -10.2195    5.9181   11.5344 C   0  0  0  0  0  0  0  0  0  0  0  0
  -10.6329    5.9823   10.0563 C   0  0  0  0  0  0  0  0  0  0  0  0
   -9.6645    6.8206    9.2182 C   0  0  0  0  0  0  0  0  0  0  0  0
   -8.2655    6.4279    9.3802 N   0  0  0  0  0  0  0  0  0  0  0  0
   -7.8722    6.4377   10.8038 C   0  0  0  0  0  0  0  0  0  0  0  0
   -8.4759    3.5697   13.1466 C   0  0  0  0  0  0  0  0  0  0  0  0
   -7.0620    2.1846   13.7627 C   0  0  0  0  0  0  0  0  0  0  0  0
   -5.0664    2.7700   19.5442 N   0  0  0  0  0  0  0  0  0  0  0  0
   -4.7076    3.9296   20.3318 C   0  0  0  0  0  0  0  0  0  0  0  0
   -4.0632    3.9654   21.6177 C   0  0  0  0  0  0  0  0  0  0  0  0
   -3.2925    5.1519   23.2468 H   0  0  0  0  0  0  0  0  0  0  0  0
   -3.9745    7.2906   22.1954 H   0  0  0  0  0  0  0  0  0  0  0  0
   -5.2390    7.2875   20.0534 H   0  0  0  0  0  0  0  0  0  0  0  0
   -6.3181    1.5247   17.4737 H   0  0  0  0  0  0  0  0  0  0  0  0
   -4.5575    1.2481   17.0839 H   0  0  0  0  0  0  0  0  0  0  0  0
   -5.2608    4.9702   14.4114 H   0  0  0  0  0  0  0  0  0  0  0  0
   -5.3756    4.2816   12.9723 H   0  0  0  0  0  0  0  0  0  0  0  0
   -7.3781    6.0052   14.4727 H   0  0  0  0  0  0  0  0  0  0  0  0
   -6.5917    6.1114   12.9750 H   0  0  0  0  0  0  0  0  0  0  0  0
   -8.7999    4.5725   10.9599 H   0  0  0  0  0  0  0  0  0  0  0  0
  -10.3348    6.9009   12.0069 H   0  0  0  0  0  0  0  0  0  0  0  0
  -10.8847    5.2209   12.0577 H   0  0  0  0  0  0  0  0  0  0  0  0
  -11.6426    6.4018    9.9794 H   0  0  0  0  0  0  0  0  0  0  0  0
  -10.6824    4.9651    9.6468 H   0  0  0  0  0  0  0  0  0  0  0  0
   -9.9370    6.7315    8.1608 H   0  0  0  0  0  0  0  0  0  0  0  0
   -9.7772    7.8790    9.4845 H   0  0  0  0  0  0  0  0  0  0  0  0
   -7.6701    7.0778    8.8675 H   0  0  0  0  0  0  0  0  0  0  0  0
   -6.8176    6.1525   10.8362 H   0  0  0  0  0  0  0  0  0  0  0  0
   -7.9444    7.4515   11.2165 H   0  0  0  0  0  0  0  0  0  0  0  0
   -8.9115    3.1573   12.1996 H   0  0  0  0  0  0  0  0  0  0  0  0
   -9.4648    3.6128   13.6817 H   0  0  0  0  0  0  0  0  0  0  0  0
   -7.2572    1.3024   14.2108 H   0  0  0  0  0  0  0  0  0  0  0  0
   -6.5875    1.7134   12.8973 H   0  0  0  0  0  0  0  0  0  0  0  0
   -3.8323    3.0307   22.1058 H   0  0  0  0  0  0  0  0  0  0  0  0
  1  2  2  0
  2  3  1  0
  3  4  2  0
  4  5  1  0
  5  6  1  0
  6  7  1  0
  7  8  1  0
  8  9  1  0
  9 10  1  0
 10 11  1  0
 11 12  1  0
 12 13  1  0
 13 14  1  0
 14 15  1  0
 15 16  1  0
 16 17  1  0
 11 18  1  0
 18 19  1  0
  6 20  2  0
 20 21  1  0
 21 22  2  0
 22  1  1  0
 21  4  1  0
 19  8  1  0
 17 12  1  0
  1 23  1  0
  2 24  1  0
  3 25  1  0
  7 26  1  0
  7 27  1  0
  9 28  1  0
  9 29  1  0
 10 30  1  0
 10 31  1  0
 12 32  1  0
 13 33  1  0
 13 34  1  0
 14 35  1  0
 14 36  1  0
 15 37  1  0
 15 38  1  0
 16 39  1  0
 17 40  1  0
 17 41  1  0
 18 42  1  0
 18 43  1  0
 19 44  1  0
 19 45  1  0
 22 46  1  0
M  END
>  <Energy>  (1107) 
750.19300032624596

>  <compound_id>  (1107) 
49804

>  <target_id>  (1107) 
1

>  <reference_id>  (1107) 
70

>  <inspiration_ids>  (1107) 
[69, 70]

>  <energy_score>  (1107) 
541.9628435965977

>  <distance_score>  (1107) 
8.792882535191119

>  <path>  (1107) 
/opt/xchem-fragalysis-2/maxwin/BulkDock/SCRATCH/511020/C49804-P70/C49804-P70.minimised.mol

>  <scratch_subdir>  (1107) 
/opt/xchem-fragalysis-2/maxwin/BulkDock/SCRATCH/511020/C49804-P70

>  <fragmenstein_runtime>  (1107) 
13.64258337020874

>  <fragmenstein_outcome>  (1107) 
too moved

>  <fragmenstein_mode>  (1107) 
expansion

>  <fragmenstein_error>  (1107) 


$$$$
C40204-P69
     RDKit          3D

 40 42  0  0  0  0  0  0  0  0999 V2000
   -5.4220   -0.8741    6.2171 C   0  0  0  0  0  0  0  0  0  0  0  0
   -5.5565   -0.5969    7.6745 C   0  0  0  0  0  0  0  0  0  0  0  0
   -6.7145   -0.4204    8.2758 N   0  0  0  0  0  0  0  0  0  0  0  0
   -6.5096   -0.3214    9.6288 C   0  0  0  0  0  0  0  0  0  0  0  0
   -7.4249   -0.0920   10.7108 C   0  0  0  0  0  0  0  0  0  0  0  0
   -7.0002   -0.0267   12.2928 C   0  0  0  0  0  0  0  0  0  0  0  0
   -5.9394   -0.2668   13.1208 C   0  0  0  0  0  0  0  0  0  0  0  0
   -5.7028   -0.6617   15.0464 C   0  0  0  0  0  0  0  0  0  0  0  0
   -6.3409   -1.6814   15.2905 O   0  0  0  0  0  0  0  0  0  0  0  0
   -4.5634    0.0402   16.7004 N   0  0  0  0  0  0  0  0  0  0  0  0
   -4.2448   -0.7798   18.5648 O   0  0  0  0  0  0  0  0  0  0  0  0
   -4.0708   -0.3462   20.5870 C   0  0  0  0  0  0  0  0  0  0  0  0
   -2.8985   -0.3698   22.1789 C   0  0  0  0  0  0  0  0  0  0  0  0
   -2.1807    1.5460   22.4506 C   0  0  0  0  0  0  0  0  0  0  0  0
   -2.1066    2.5309   24.1276 C   0  0  0  0  0  0  0  0  0  0  0  0
   -2.2785    1.4611   25.4666 N   0  0  0  0  0  0  0  0  0  0  0  0
   -3.4414    0.0249   25.5783 C   0  0  0  0  0  0  0  0  0  0  0  0
   -3.2787   -1.3620   23.9559 C   0  0  0  0  0  0  0  0  0  0  0  0
   -4.9692   -0.3785   11.8225 C   0  0  0  0  0  0  0  0  0  0  0  0
   -5.1448   -0.3616   10.0701 C   0  0  0  0  0  0  0  0  0  0  0  0
   -4.1538   -0.4490    8.6639 S   0  0  0  0  0  0  0  0  0  0  0  0
   -5.5743    0.0451    5.6434 H   0  0  0  0  0  0  0  0  0  0  0  0
   -4.4415   -1.2878    5.9607 H   0  0  0  0  0  0  0  0  0  0  0  0
   -6.1807   -1.5989    5.9043 H   0  0  0  0  0  0  0  0  0  0  0  0
   -8.4485    0.1797   10.4525 H   0  0  0  0  0  0  0  0  0  0  0  0
   -7.0762    1.0172   12.6893 H   0  0  0  0  0  0  0  0  0  0  0  0
   -4.0277    0.7811   16.4143 H   0  0  0  0  0  0  0  0  0  0  0  0
   -4.5457   -0.6032   21.4767 H   0  0  0  0  0  0  0  0  0  0  0  0
   -4.4568    0.7033   20.7657 H   0  0  0  0  0  0  0  0  0  0  0  0
   -2.3741   -1.2881   22.0179 H   0  0  0  0  0  0  0  0  0  0  0  0
   -1.2526    1.8373   21.9756 H   0  0  0  0  0  0  0  0  0  0  0  0
   -2.9838    2.2282   22.1166 H   0  0  0  0  0  0  0  0  0  0  0  0
   -1.1143    2.9818   24.2019 H   0  0  0  0  0  0  0  0  0  0  0  0
   -2.9327    3.2462   24.1558 H   0  0  0  0  0  0  0  0  0  0  0  0
   -2.5963    2.0566   26.2430 H   0  0  0  0  0  0  0  0  0  0  0  0
   -4.3343    0.6698   25.6353 H   0  0  0  0  0  0  0  0  0  0  0  0
   -3.1608   -0.4137   26.5632 H   0  0  0  0  0  0  0  0  0  0  0  0
   -3.9386   -2.2270   24.1609 H   0  0  0  0  0  0  0  0  0  0  0  0
   -2.5294   -2.0836   23.5938 H   0  0  0  0  0  0  0  0  0  0  0  0
   -5.3675   -1.2739   12.1732 H   0  0  0  0  0  0  0  0  0  0  0  0
  1  2  1  0
  2  3  2  0
  3  4  1  0
  4  5  2  0
  5  6  1  0
  6  7  2  0
  7  8  1  0
  8  9  2  0
  8 10  1  0
 10 11  1  0
 11 12  1  0
 12 13  1  0
 13 14  1  0
 14 15  1  0
 15 16  1  0
 16 17  1  0
 17 18  1  0
  7 19  1  0
 19 20  2  0
 20 21  1  0
 21  2  1  0
 20  4  1  0
 18 13  1  0
  1 22  1  0
  1 23  1  0
  1 24  1  0
  5 25  1  0
  6 26  1  0
 10 27  1  0
 12 28  1  0
 12 29  1  0
 13 30  1  0
 14 31  1  0
 14 32  1  0
 15 33  1  0
 15 34  1  0
 16 35  1  0
 17 36  1  0
 17 37  1  0
 18 38  1  0
 18 39  1  0
 19 40  1  0
M  END
>  <Energy>  (1108) 
1477.2115538832352

>  <compound_id>  (1108) 
40204

>  <target_id>  (1108) 
1

>  <reference_id>  (1108) 
69

>  <inspiration_ids>  (1108) 
[69, 70]

>  <energy_score>  (1108) 
1363.393873418503

>  <distance_score>  (1108) 
5.431099947587796

>  <path>  (1108) 
/opt/xchem-fragalysis-2/maxwin/BulkDock/SCRATCH/511020/C40204-P69/C40204-P69.minimised.mol

>  <scratch_subdir>  (1108) 
/opt/xchem-fragalysis-2/maxwin/BulkDock/SCRATCH/511020/C40204-P69

>  <fragmenstein_runtime>  (1108) 
12.434007167816162

>  <fragmenstein_outcome>  (1108) 
too moved

>  <fragmenstein_mode>  (1108) 
expansion

>  <fragmenstein_error>  (1108) 


$$$$
C40204-P70
     RDKit          3D

 40 42  0  0  0  0  0  0  0  0999 V2000
   -4.5630   -0.5428    6.1421 C   0  0  0  0  0  0  0  0  0  0  0  0
   -4.8365   -0.0998    7.5357 C   0  0  0  0  0  0  0  0  0  0  0  0
   -6.0313    0.1972    7.9730 N   0  0  0  0  0  0  0  0  0  0  0  0
   -5.9794    0.3086    9.3354 C   0  0  0  0  0  0  0  0  0  0  0  0
   -7.0536    0.3791   10.2191 C   0  0  0  0  0  0  0  0  0  0  0  0
   -6.8005    0.1491   11.8215 C   0  0  0  0  0  0  0  0  0  0  0  0
   -5.8541    0.1916   13.0364 C   0  0  0  0  0  0  0  0  0  0  0  0
   -5.6348   -0.2336   15.0411 C   0  0  0  0  0  0  0  0  0  0  0  0
   -6.3130   -1.2007   15.2783 O   0  0  0  0  0  0  0  0  0  0  0  0
   -4.4799    0.3151   16.7733 N   0  0  0  0  0  0  0  0  0  0  0  0
   -4.2701   -0.6383   18.6257 O   0  0  0  0  0  0  0  0  0  0  0  0
   -3.9751   -0.3564   20.6788 C   0  0  0  0  0  0  0  0  0  0  0  0
   -3.0208   -1.4543   22.2499 C   0  0  0  0  0  0  0  0  0  0  0  0
   -3.4648   -2.6571   23.6816 C   0  0  0  0  0  0  0  0  0  0  0  0
   -3.6251   -2.0803   25.4947 C   0  0  0  0  0  0  0  0  0  0  0  0
   -2.9573   -1.0486   26.3472 N   0  0  0  0  0  0  0  0  0  0  0  0
   -2.1333   -0.3076   25.4480 C   0  0  0  0  0  0  0  0  0  0  0  0
   -1.9853   -1.3264   23.5741 C   0  0  0  0  0  0  0  0  0  0  0  0
   -4.7384    0.1620   11.8298 C   0  0  0  0  0  0  0  0  0  0  0  0
   -4.7200    0.2024   10.0170 C   0  0  0  0  0  0  0  0  0  0  0  0
   -3.5779    0.0641    8.6825 S   0  0  0  0  0  0  0  0  0  0  0  0
   -3.7337    0.0007    5.6869 H   0  0  0  0  0  0  0  0  0  0  0  0
   -4.3316   -1.6126    6.1274 H   0  0  0  0  0  0  0  0  0  0  0  0
   -5.4455   -0.3846    5.5135 H   0  0  0  0  0  0  0  0  0  0  0  0
   -8.0763    0.3615    9.8459 H   0  0  0  0  0  0  0  0  0  0  0  0
   -7.7720   -0.3643   11.9920 H   0  0  0  0  0  0  0  0  0  0  0  0
   -3.8699    1.0552   16.5241 H   0  0  0  0  0  0  0  0  0  0  0  0
   -4.5450   -0.4996   21.5250 H   0  0  0  0  0  0  0  0  0  0  0  0
   -4.3656    0.6005   20.8597 H   0  0  0  0  0  0  0  0  0  0  0  0
   -3.0735   -2.4276   21.7915 H   0  0  0  0  0  0  0  0  0  0  0  0
   -2.7460   -3.4958   23.6752 H   0  0  0  0  0  0  0  0  0  0  0  0
   -4.3554   -3.2012   23.3165 H   0  0  0  0  0  0  0  0  0  0  0  0
   -4.6066   -2.2218   25.9536 H   0  0  0  0  0  0  0  0  0  0  0  0
   -3.0980   -2.9272   25.8665 H   0  0  0  0  0  0  0  0  0  0  0  0
   -2.4345   -1.5061   27.1014 H   0  0  0  0  0  0  0  0  0  0  0  0
   -2.4335    0.7629   25.5345 H   0  0  0  0  0  0  0  0  0  0  0  0
   -1.1931   -0.2531   26.0329 H   0  0  0  0  0  0  0  0  0  0  0  0
   -1.2846   -0.5624   23.5854 H   0  0  0  0  0  0  0  0  0  0  0  0
   -1.3356   -2.1705   23.1805 H   0  0  0  0  0  0  0  0  0  0  0  0
   -3.7660    0.1966   12.2645 H   0  0  0  0  0  0  0  0  0  0  0  0
  1  2  1  0
  2  3  2  0
  3  4  1  0
  4  5  2  0
  5  6  1  0
  6  7  2  0
  7  8  1  0
  8  9  2  0
  8 10  1  0
 10 11  1  0
 11 12  1  0
 12 13  1  0
 13 14  1  0
 14 15  1  0
 15 16  1  0
 16 17  1  0
 17 18  1  0
  7 19  1  0
 19 20  2  0
 20 21  1  0
 21  2  1  0
 20  4  1  0
 18 13  1  0
  1 22  1  0
  1 23  1  0
  1 24  1  0
  5 25  1  0
  6 26  1  0
 10 27  1  0
 12 28  1  0
 12 29  1  0
 13 30  1  0
 14 31  1  0
 14 32  1  0
 15 33  1  0
 15 34  1  0
 16 35  1  0
 17 36  1  0
 17 37  1  0
 18 38  1  0
 18 39  1  0
 19 40  1  0
M  END
>  <Energy>  (1109) 
1507.3462849088612

>  <compound_id>  (1109) 
40204

>  <target_id>  (1109) 
1

>  <reference_id>  (1109) 
70

>  <inspiration_ids>  (1109) 
[69, 70]

>  <energy_score>  (1109) 
1393.5286044441157

>  <distance_score>  (1109) 
5.54678043109106

>  <path>  (1109) 
/opt/xchem-fragalysis-2/maxwin/BulkDock/SCRATCH/511020/C40204-P70/C40204-P70.minimised.mol

>  <scratch_subdir>  (1109) 
/opt/xchem-fragalysis-2/maxwin/BulkDock/SCRATCH/511020/C40204-P70

>  <fragmenstein_runtime>  (1109) 
14.669642925262451

>  <fragmenstein_outcome>  (1109) 
too moved

>  <fragmenstein_mode>  (1109) 
expansion

>  <fragmenstein_error>  (1109) 


$$$$
C40209-P69
     RDKit          3D

 41 44  0  0  0  0  0  0  0  0999 V2000
   -1.5742    5.7697   20.3873 O   0  0  0  0  0  0  0  0  0  0  0  0
   -0.6864    5.0517   20.0268 C   0  0  0  0  0  0  0  0  0  0  0  0
   -0.3755    4.5104   18.6978 N   0  0  0  0  0  0  0  0  0  0  0  0
   -1.0819    4.5974   17.4671 C   0  0  0  0  0  0  0  0  0  0  0  0
   -2.3905    5.0686   17.3547 C   0  0  0  0  0  0  0  0  0  0  0  0
   -3.0692    5.0871   16.1151 C   0  0  0  0  0  0  0  0  0  0  0  0
   -2.3961    4.7108   14.9380 C   0  0  0  0  0  0  0  0  0  0  0  0
   -2.8730    4.8435   13.6445 N   0  0  0  0  0  0  0  0  0  0  0  0
   -1.8828    4.6173   12.8120 C   0  0  0  0  0  0  0  0  0  0  0  0
   -0.4910    3.8746   13.4748 S   0  0  0  0  0  0  0  0  0  0  0  0
   -1.0971    4.2133   15.0547 C   0  0  0  0  0  0  0  0  0  0  0  0
   -0.4522    4.0986   16.3082 C   0  0  0  0  0  0  0  0  0  0  0  0
    0.2952    4.5516   21.0525 C   0  0  0  0  0  0  0  0  0  0  0  0
    1.6506    4.3041   20.8016 C   0  0  0  0  0  0  0  0  0  0  0  0
    2.2906    3.8175   21.9523 C   0  0  0  0  0  0  0  0  0  0  0  0
    1.3514    3.8187   22.9368 C   0  0  0  0  0  0  0  0  0  0  0  0
    0.1306    4.2570   22.4189 N   0  0  0  0  0  0  0  0  0  0  0  0
   -0.9901    4.2468   23.3623 C   0  0  0  0  0  0  0  0  0  0  0  0
   -0.8404    5.3068   24.4706 C   0  0  0  0  0  0  0  0  0  0  0  0
   -1.6849    4.9066   25.6882 C   0  0  0  0  0  0  0  0  0  0  0  0
   -2.8571    4.0996   25.3288 N   0  0  0  0  0  0  0  0  0  0  0  0
   -3.4047    4.5552   24.0506 C   0  0  0  0  0  0  0  0  0  0  0  0
   -2.4517    4.1815   22.9081 C   0  0  0  0  0  0  0  0  0  0  0  0
    0.4981    4.0046   18.7424 H   0  0  0  0  0  0  0  0  0  0  0  0
   -2.9210    5.4227   18.2375 H   0  0  0  0  0  0  0  0  0  0  0  0
   -4.0820    5.4745   16.0588 H   0  0  0  0  0  0  0  0  0  0  0  0
   -1.9582    4.8696   11.7644 H   0  0  0  0  0  0  0  0  0  0  0  0
    0.5582    3.7019   16.3563 H   0  0  0  0  0  0  0  0  0  0  0  0
    2.1539    4.4612   19.8561 H   0  0  0  0  0  0  0  0  0  0  0  0
    3.3218    3.5068   22.0496 H   0  0  0  0  0  0  0  0  0  0  0  0
    1.4411    3.5234   23.9752 H   0  0  0  0  0  0  0  0  0  0  0  0
   -0.8415    3.2714   23.8594 H   0  0  0  0  0  0  0  0  0  0  0  0
   -1.1668    6.2815   24.0841 H   0  0  0  0  0  0  0  0  0  0  0  0
    0.1990    5.4387   24.7915 H   0  0  0  0  0  0  0  0  0  0  0  0
   -1.0739    4.3191   26.3825 H   0  0  0  0  0  0  0  0  0  0  0  0
   -1.9950    5.8113   26.2244 H   0  0  0  0  0  0  0  0  0  0  0  0
   -3.5612    4.2228   26.0606 H   0  0  0  0  0  0  0  0  0  0  0  0
   -4.3798    4.0962   23.8777 H   0  0  0  0  0  0  0  0  0  0  0  0
   -3.5795    5.6384   24.0695 H   0  0  0  0  0  0  0  0  0  0  0  0
   -2.6744    4.8408   22.0742 H   0  0  0  0  0  0  0  0  0  0  0  0
   -2.6692    3.1583   22.5891 H   0  0  0  0  0  0  0  0  0  0  0  0
  1  2  2  0
  2  3  1  0
  3  4  1  0
  4  5  2  0
  5  6  1  0
  6  7  2  0
  7  8  1  0
  8  9  2  0
  9 10  1  0
 10 11  1  0
 11 12  2  0
  2 13  1  0
 13 14  2  0
 14 15  1  0
 15 16  2  0
 16 17  1  0
 17 18  1  0
 18 19  1  0
 19 20  1  0
 20 21  1  0
 21 22  1  0
 22 23  1  0
 12  4  1  0
 17 13  1  0
 23 18  1  0
 11  7  1  0
  3 24  1  0
  5 25  1  0
  6 26  1  0
  9 27  1  0
 12 28  1  0
 14 29  1  0
 15 30  1  0
 16 31  1  0
 18 32  1  0
 19 33  1  0
 19 34  1  0
 20 35  1  0
 20 36  1  0
 21 37  1  0
 22 38  1  0
 22 39  1  0
 23 40  1  0
 23 41  1  0
M  END
>  <Energy>  (1110) 
20.603313841166297

>  <compound_id>  (1110) 
40209

>  <target_id>  (1110) 
1

>  <reference_id>  (1110) 
69

>  <inspiration_ids>  (1110) 
[69, 70]

>  <energy_score>  (1110) 
-66.84270180354713

>  <distance_score>  (1110) 
9.473557277091567

>  <path>  (1110) 
/opt/xchem-fragalysis-2/maxwin/BulkDock/SCRATCH/511020/C40209-P69/C40209-P69.minimised.mol

>  <scratch_subdir>  (1110) 
/opt/xchem-fragalysis-2/maxwin/BulkDock/SCRATCH/511020/C40209-P69

>  <fragmenstein_runtime>  (1110) 
10.824652671813965

>  <fragmenstein_outcome>  (1110) 
too moved

>  <fragmenstein_mode>  (1110) 
expansion

>  <fragmenstein_error>  (1110) 


$$$$
C40209-P70
     RDKit          3D

 41 44  0  0  0  0  0  0  0  0999 V2000
   -3.8646    5.9370   20.8815 O   0  0  0  0  0  0  0  0  0  0  0  0
   -2.7149    5.6235   20.7748 C   0  0  0  0  0  0  0  0  0  0  0  0
   -1.8952    5.4200   19.5931 N   0  0  0  0  0  0  0  0  0  0  0  0
   -2.2332    5.4371   18.2041 C   0  0  0  0  0  0  0  0  0  0  0  0
   -3.5414    5.6459   17.7473 C   0  0  0  0  0  0  0  0  0  0  0  0
   -3.8872    5.5412   16.3783 C   0  0  0  0  0  0  0  0  0  0  0  0
   -2.8961    5.2524   15.4212 C   0  0  0  0  0  0  0  0  0  0  0  0
   -3.0563    5.2443   14.0417 N   0  0  0  0  0  0  0  0  0  0  0  0
   -1.8830    5.0614   13.4798 C   0  0  0  0  0  0  0  0  0  0  0  0
   -0.6020    4.6195   14.5192 S   0  0  0  0  0  0  0  0  0  0  0  0
   -1.6036    4.9878   15.8794 C   0  0  0  0  0  0  0  0  0  0  0  0
   -1.2631    5.0597   17.2556 C   0  0  0  0  0  0  0  0  0  0  0  0
   -2.0183    5.2836   22.0614 C   0  0  0  0  0  0  0  0  0  0  0  0
   -0.6313    5.7856   22.9407 C   0  0  0  0  0  0  0  0  0  0  0  0
   -0.6544    4.5735   24.5822 C   0  0  0  0  0  0  0  0  0  0  0  0
   -1.8949    3.6820   24.5721 C   0  0  0  0  0  0  0  0  0  0  0  0
   -2.7092    4.0402   23.1719 N   0  0  0  0  0  0  0  0  0  0  0  0
   -2.2092    5.1860   23.6381 C   0  0  0  0  0  0  0  0  0  0  0  0
   -1.5361    6.4757   24.8802 C   0  0  0  0  0  0  0  0  0  0  0  0
    0.3004    6.6493   24.9558 C   0  0  0  0  0  0  0  0  0  0  0  0
    1.4568    5.7329   24.1303 N   0  0  0  0  0  0  0  0  0  0  0  0
    1.0788    4.3379   23.2392 C   0  0  0  0  0  0  0  0  0  0  0  0
   -0.7165    3.8673   22.7543 C   0  0  0  0  0  0  0  0  0  0  0  0
   -0.9851    5.0785   19.8767 H   0  0  0  0  0  0  0  0  0  0  0  0
   -4.3353    5.8829   18.4545 H   0  0  0  0  0  0  0  0  0  0  0  0
   -4.9072    5.7354   16.0611 H   0  0  0  0  0  0  0  0  0  0  0  0
   -1.7296    5.1838   12.4199 H   0  0  0  0  0  0  0  0  0  0  0  0
   -0.2456    4.8358   17.5649 H   0  0  0  0  0  0  0  0  0  0  0  0
    0.0831    6.5434   22.6118 H   0  0  0  0  0  0  0  0  0  0  0  0
    0.0890    4.5073   25.3819 H   0  0  0  0  0  0  0  0  0  0  0  0
   -2.3333    2.8923   25.1686 H   0  0  0  0  0  0  0  0  0  0  0  0
   -3.2406    5.6693   23.5208 H   0  0  0  0  0  0  0  0  0  0  0  0
   -1.9108    6.2402   25.8841 H   0  0  0  0  0  0  0  0  0  0  0  0
   -1.9176    7.4484   24.5399 H   0  0  0  0  0  0  0  0  0  0  0  0
    0.5112    7.6861   24.6609 H   0  0  0  0  0  0  0  0  0  0  0  0
    0.5650    6.5682   26.0197 H   0  0  0  0  0  0  0  0  0  0  0  0
    2.1609    5.4527   24.8156 H   0  0  0  0  0  0  0  0  0  0  0  0
    1.4852    3.4861   23.8037 H   0  0  0  0  0  0  0  0  0  0  0  0
    1.6370    4.4270   22.2979 H   0  0  0  0  0  0  0  0  0  0  0  0
   -0.5844    3.8800   21.6457 H   0  0  0  0  0  0  0  0  0  0  0  0
   -0.8052    2.7733   22.9751 H   0  0  0  0  0  0  0  0  0  0  0  0
  1  2  2  0
  2  3  1  0
  3  4  1  0
  4  5  2  0
  5  6  1  0
  6  7  2  0
  7  8  1  0
  8  9  2  0
  9 10  1  0
 10 11  1  0
 11 12  2  0
  2 13  1  0
 13 14  2  0
 14 15  1  0
 15 16  2  0
 16 17  1  0
 17 18  1  0
 18 19  1  0
 19 20  1  0
 20 21  1  0
 21 22  1  0
 22 23  1  0
 12  4  1  0
 17 13  1  0
 23 18  1  0
 11  7  1  0
  3 24  1  0
  5 25  1  0
  6 26  1  0
  9 27  1  0
 12 28  1  0
 14 29  1  0
 15 30  1  0
 16 31  1  0
 18 32  1  0
 19 33  1  0
 19 34  1  0
 20 35  1  0
 20 36  1  0
 21 37  1  0
 22 38  1  0
 22 39  1  0
 23 40  1  0
 23 41  1  0
M  END
>  <Energy>  (1111) 
1197.5664721466578

>  <compound_id>  (1111) 
40209

>  <target_id>  (1111) 
1

>  <reference_id>  (1111) 
70

>  <inspiration_ids>  (1111) 
[69, 70]

>  <energy_score>  (1111) 
1110.1204565019452

>  <distance_score>  (1111) 
9.73613582657205

>  <path>  (1111) 
/opt/xchem-fragalysis-2/maxwin/BulkDock/SCRATCH/511020/C40209-P70/C40209-P70.minimised.mol

>  <scratch_subdir>  (1111) 
/opt/xchem-fragalysis-2/maxwin/BulkDock/SCRATCH/511020/C40209-P70

>  <fragmenstein_runtime>  (1111) 
25.998170852661133

>  <fragmenstein_outcome>  (1111) 
too moved

>  <fragmenstein_mode>  (1111) 
expansion

>  <fragmenstein_error>  (1111) 


$$$$
C40956-P69
     RDKit          3D

 41 43  0  0  0  0  0  0  0  0999 V2000
  -11.1827  -12.0140   15.9756 C   0  0  0  0  0  0  0  0  0  0  0  0
  -10.1573  -12.1467   17.4853 C   0  0  0  0  0  0  0  0  0  0  0  0
   -8.3035  -12.2292   16.6930 C   0  0  0  0  0  0  0  0  0  0  0  0
   -8.6762  -11.3655   14.9206 C   0  0  0  0  0  0  0  0  0  0  0  0
   -7.8007  -10.2701   14.2915 N   0  0  0  0  0  0  0  0  0  0  0  0
   -7.0064  -10.2680   13.0825 C   0  0  0  0  0  0  0  0  0  0  0  0
   -6.8948  -11.0924   12.2201 O   0  0  0  0  0  0  0  0  0  0  0  0
   -6.0635   -9.0530   12.9234 C   0  0  0  0  0  0  0  0  0  0  0  0
   -6.1263   -7.8458   13.6298 C   0  0  0  0  0  0  0  0  0  0  0  0
   -5.2193   -6.7863   13.3979 C   0  0  0  0  0  0  0  0  0  0  0  0
   -4.0630   -7.0180   12.6356 C   0  0  0  0  0  0  0  0  0  0  0  0
   -3.0361   -6.1222   12.3653 N   0  0  0  0  0  0  0  0  0  0  0  0
   -2.0124   -6.7820   11.8680 C   0  0  0  0  0  0  0  0  0  0  0  0
   -2.2120   -8.4692   11.7006 S   0  0  0  0  0  0  0  0  0  0  0  0
   -3.8728   -8.3053   12.1437 C   0  0  0  0  0  0  0  0  0  0  0  0
   -4.8957   -9.2763   12.1636 C   0  0  0  0  0  0  0  0  0  0  0  0
   -7.1912  -13.7975   16.8305 N   0  0  0  0  0  0  0  0  0  0  0  0
   -6.7483  -14.9431   15.7095 C   0  0  0  0  0  0  0  0  0  0  0  0
   -6.3583  -16.3186   16.3838 C   0  0  0  0  0  0  0  0  0  0  0  0
   -7.1183  -17.4940   16.6641 C   0  0  0  0  0  0  0  0  0  0  0  0
   -6.3057  -18.2983   17.4236 C   0  0  0  0  0  0  0  0  0  0  0  0
   -5.0993  -17.7064   17.5461 O   0  0  0  0  0  0  0  0  0  0  0  0
   -5.0949  -16.5178   16.8243 N   0  0  0  0  0  0  0  0  0  0  0  0
  -11.2435  -12.8874   15.3561 H   0  0  0  0  0  0  0  0  0  0  0  0
  -10.9376  -11.3358   15.1806 H   0  0  0  0  0  0  0  0  0  0  0  0
  -12.1743  -11.5762   16.1695 H   0  0  0  0  0  0  0  0  0  0  0  0
  -10.2643  -12.8570   18.2826 H   0  0  0  0  0  0  0  0  0  0  0  0
  -10.4768  -11.2877   18.0927 H   0  0  0  0  0  0  0  0  0  0  0  0
   -7.7199  -11.7126   17.4699 H   0  0  0  0  0  0  0  0  0  0  0  0
   -9.5109  -10.6859   14.8926 H   0  0  0  0  0  0  0  0  0  0  0  0
   -8.9132  -12.1501   14.1841 H   0  0  0  0  0  0  0  0  0  0  0  0
   -7.7140   -9.3750   14.7431 H   0  0  0  0  0  0  0  0  0  0  0  0
   -6.8854   -7.6646   14.3831 H   0  0  0  0  0  0  0  0  0  0  0  0
   -5.3518   -5.8287   13.8927 H   0  0  0  0  0  0  0  0  0  0  0  0
   -1.0782   -6.3027   11.6036 H   0  0  0  0  0  0  0  0  0  0  0  0
   -4.7135  -10.2528   11.7176 H   0  0  0  0  0  0  0  0  0  0  0  0
   -6.2165  -13.5573   17.0720 H   0  0  0  0  0  0  0  0  0  0  0  0
   -5.8293  -14.6291   15.2098 H   0  0  0  0  0  0  0  0  0  0  0  0
   -7.5086  -15.0805   14.9316 H   0  0  0  0  0  0  0  0  0  0  0  0
   -8.1226  -17.7384   16.3920 H   0  0  0  0  0  0  0  0  0  0  0  0
   -6.4145  -19.2567   17.9091 H   0  0  0  0  0  0  0  0  0  0  0  0
  1  2  1  0
  2  3  1  0
  3  4  1  0
  4  5  1  0
  5  6  1  0
  6  7  2  0
  6  8  1  0
  8  9  2  0
  9 10  1  0
 10 11  2  0
 11 12  1  0
 12 13  2  0
 13 14  1  0
 14 15  1  0
 15 16  2  0
  3 17  1  0
 17 18  1  0
 18 19  1  0
 19 20  1  0
 20 21  2  0
 21 22  1  0
 22 23  1  0
 16  8  1  0
 23 19  2  0
 15 11  1  0
  1 24  1  0
  1 25  1  0
  1 26  1  0
  2 27  1  0
  2 28  1  0
  3 29  1  0
  4 30  1  0
  4 31  1  0
  5 32  1  0
  9 33  1  0
 10 34  1  0
 13 35  1  0
 16 36  1  0
 17 37  1  0
 18 38  1  0
 18 39  1  0
 20 40  1  0
 21 41  1  0
M  END
>  <Energy>  (1112) 
319.84980297028392

>  <compound_id>  (1112) 
40956

>  <target_id>  (1112) 
1

>  <reference_id>  (1112) 
69

>  <inspiration_ids>  (1112) 
[69, 82]

>  <energy_score>  (1112) 
191.3180148009161

>  <distance_score>  (1112) 
13.059946919404387

>  <path>  (1112) 
/opt/xchem-fragalysis-2/maxwin/BulkDock/SCRATCH/511020/C40956-P69/C40956-P69.minimised.mol

>  <scratch_subdir>  (1112) 
/opt/xchem-fragalysis-2/maxwin/BulkDock/SCRATCH/511020/C40956-P69

>  <fragmenstein_runtime>  (1112) 
46.91360545158386

>  <fragmenstein_outcome>  (1112) 
too moved

>  <fragmenstein_mode>  (1112) 
expansion

>  <fragmenstein_error>  (1112) 


$$$$
C40956-P82
     RDKit          3D

 41 43  0  0  0  0  0  0  0  0999 V2000
  -10.8222  -11.4099   23.9845 C   0  0  0  0  0  0  0  0  0  0  0  0
   -9.8603  -11.5039   22.7886 C   0  0  0  0  0  0  0  0  0  0  0  0
  -10.0219  -13.0022   21.4896 C   0  0  0  0  0  0  0  0  0  0  0  0
   -9.0816  -13.2993   19.7250 C   0  0  0  0  0  0  0  0  0  0  0  0
   -7.7904  -12.4598   19.0144 N   0  0  0  0  0  0  0  0  0  0  0  0
   -7.5741  -12.0216   17.6693 C   0  0  0  0  0  0  0  0  0  0  0  0
   -8.2356  -12.2301   16.7224 O   0  0  0  0  0  0  0  0  0  0  0  0
   -6.1633  -10.8342   17.1994 C   0  0  0  0  0  0  0  0  0  0  0  0
   -4.8335  -11.2374   16.8302 C   0  0  0  0  0  0  0  0  0  0  0  0
   -3.9567  -10.5265   15.9192 C   0  0  0  0  0  0  0  0  0  0  0  0
   -4.3394   -9.3346   15.2694 C   0  0  0  0  0  0  0  0  0  0  0  0
   -3.6469   -8.6269   14.2903 N   0  0  0  0  0  0  0  0  0  0  0  0
   -4.3342   -7.5590   13.9489 C   0  0  0  0  0  0  0  0  0  0  0  0
   -5.8040   -7.3107   14.7944 S   0  0  0  0  0  0  0  0  0  0  0  0
   -5.5622   -8.8020   15.6404 C   0  0  0  0  0  0  0  0  0  0  0  0
   -6.4054   -9.4915   16.5713 C   0  0  0  0  0  0  0  0  0  0  0  0
  -11.1630  -14.2105   22.3967 N   0  0  0  0  0  0  0  0  0  0  0  0
  -11.6309  -15.8900   23.1504 C   0  0  0  0  0  0  0  0  0  0  0  0
  -10.5717  -17.2423   24.1307 C   0  0  0  0  0  0  0  0  0  0  0  0
   -9.7341  -18.8579   23.5919 C   0  0  0  0  0  0  0  0  0  0  0  0
  -10.6002  -20.1199   23.5229 C   0  0  0  0  0  0  0  0  0  0  0  0
  -11.6597  -19.7516   24.4548 O   0  0  0  0  0  0  0  0  0  0  0  0
  -11.4609  -17.8647   24.8912 N   0  0  0  0  0  0  0  0  0  0  0  0
  -11.7016  -12.0210   23.9320 H   0  0  0  0  0  0  0  0  0  0  0  0
  -10.3792  -11.5649   24.9687 H   0  0  0  0  0  0  0  0  0  0  0  0
  -11.1758  -10.3940   23.9782 H   0  0  0  0  0  0  0  0  0  0  0  0
   -8.7921  -11.7360   22.7935 H   0  0  0  0  0  0  0  0  0  0  0  0
   -9.3570  -10.5200   22.9453 H   0  0  0  0  0  0  0  0  0  0  0  0
   -9.1081  -13.2709   21.7520 H   0  0  0  0  0  0  0  0  0  0  0  0
   -9.8362  -13.0842   18.9656 H   0  0  0  0  0  0  0  0  0  0  0  0
   -8.7743  -14.3235   19.6136 H   0  0  0  0  0  0  0  0  0  0  0  0
   -7.0995  -12.0503   19.5967 H   0  0  0  0  0  0  0  0  0  0  0  0
   -4.4790  -12.2220   17.0755 H   0  0  0  0  0  0  0  0  0  0  0  0
   -3.0021  -10.9765   15.6542 H   0  0  0  0  0  0  0  0  0  0  0  0
   -3.9891   -6.8653   13.1936 H   0  0  0  0  0  0  0  0  0  0  0  0
   -7.2690   -8.9052   16.8730 H   0  0  0  0  0  0  0  0  0  0  0  0
  -11.3687  -14.5823   21.4486 H   0  0  0  0  0  0  0  0  0  0  0  0
  -12.3843  -16.2829   22.4698 H   0  0  0  0  0  0  0  0  0  0  0  0
  -12.3399  -15.6133   23.9589 H   0  0  0  0  0  0  0  0  0  0  0  0
   -8.6621  -18.9583   23.1837 H   0  0  0  0  0  0  0  0  0  0  0  0
  -10.5778  -21.1409   23.1652 H   0  0  0  0  0  0  0  0  0  0  0  0
  1  2  1  0
  2  3  1  0
  3  4  1  0
  4  5  1  0
  5  6  1  0
  6  7  2  0
  6  8  1  0
  8  9  2  0
  9 10  1  0
 10 11  2  0
 11 12  1  0
 12 13  2  0
 13 14  1  0
 14 15  1  0
 15 16  2  0
  3 17  1  0
 17 18  1  0
 18 19  1  0
 19 20  1  0
 20 21  2  0
 21 22  1  0
 22 23  1  0
 16  8  1  0
 23 19  2  0
 15 11  1  0
  1 24  1  0
  1 25  1  0
  1 26  1  0
  2 27  1  0
  2 28  1  0
  3 29  1  0
  4 30  1  0
  4 31  1  0
  5 32  1  0
  9 33  1  0
 10 34  1  0
 13 35  1  0
 16 36  1  0
 17 37  1  0
 18 38  1  0
 18 39  1  0
 20 40  1  0
 21 41  1  0
M  END
>  <Energy>  (1113) 
747.66233136814299

>  <compound_id>  (1113) 
40956

>  <target_id>  (1113) 
1

>  <reference_id>  (1113) 
82

>  <inspiration_ids>  (1113) 
[69, 82]

>  <energy_score>  (1113) 
619.1305431987671

>  <distance_score>  (1113) 
12.0456038266101

>  <path>  (1113) 
/opt/xchem-fragalysis-2/maxwin/BulkDock/SCRATCH/511020/C40956-P82/C40956-P82.minimised.mol

>  <scratch_subdir>  (1113) 
/opt/xchem-fragalysis-2/maxwin/BulkDock/SCRATCH/511020/C40956-P82

>  <fragmenstein_runtime>  (1113) 
41.577927589416504

>  <fragmenstein_outcome>  (1113) 
too moved

>  <fragmenstein_mode>  (1113) 
expansion

>  <fragmenstein_error>  (1113) 


$$$$
C40957-P69
     RDKit          3D

 44 46  0  0  0  0  0  0  0  0999 V2000
  -12.5692  -16.0556   24.1093 C   0  0  0  0  0  0  0  0  0  0  0  0
  -11.1242  -16.3553   23.8848 C   0  0  0  0  0  0  0  0  0  0  0  0
   -9.2447  -16.2916   24.4241 C   0  0  0  0  0  0  0  0  0  0  0  0
   -7.9829  -16.3573   22.5406 C   0  0  0  0  0  0  0  0  0  0  0  0
   -8.2609  -15.3247   20.6903 N   0  0  0  0  0  0  0  0  0  0  0  0
   -7.6788  -13.4914   20.0386 C   0  0  0  0  0  0  0  0  0  0  0  0
   -7.1596  -12.8354   20.8381 O   0  0  0  0  0  0  0  0  0  0  0  0
   -7.5762  -12.5855   18.3731 C   0  0  0  0  0  0  0  0  0  0  0  0
   -5.8827  -12.4039   18.0925 C   0  0  0  0  0  0  0  0  0  0  0  0
   -4.5710  -11.6592   17.2888 C   0  0  0  0  0  0  0  0  0  0  0  0
   -4.8492  -10.6047   16.4431 C   0  0  0  0  0  0  0  0  0  0  0  0
   -4.0200   -9.9293   15.5775 N   0  0  0  0  0  0  0  0  0  0  0  0
   -4.6999   -8.9787   14.9996 C   0  0  0  0  0  0  0  0  0  0  0  0
   -4.1495   -8.0630   13.9749 C   0  0  0  0  0  0  0  0  0  0  0  0
   -6.3085   -8.8177   15.5064 S   0  0  0  0  0  0  0  0  0  0  0  0
   -6.2449  -10.2835   16.5837 C   0  0  0  0  0  0  0  0  0  0  0  0
   -7.3730  -11.4138   17.5747 C   0  0  0  0  0  0  0  0  0  0  0  0
   -9.4918  -16.9392   26.3492 N   0  0  0  0  0  0  0  0  0  0  0  0
   -9.2299  -18.3925   27.7485 C   0  0  0  0  0  0  0  0  0  0  0  0
   -9.5755  -20.5244   27.8400 C   0  0  0  0  0  0  0  0  0  0  0  0
  -10.9443  -21.4263   27.1038 C   0  0  0  0  0  0  0  0  0  0  0  0
  -11.2962  -22.4591   27.8946 C   0  0  0  0  0  0  0  0  0  0  0  0
  -10.9459  -22.1155   29.1140 O   0  0  0  0  0  0  0  0  0  0  0  0
  -10.2080  -20.9901   29.1618 N   0  0  0  0  0  0  0  0  0  0  0  0
  -12.7723  -15.2642   24.8200 H   0  0  0  0  0  0  0  0  0  0  0  0
  -13.1018  -16.9451   24.3794 H   0  0  0  0  0  0  0  0  0  0  0  0
  -12.9679  -15.9062   23.1077 H   0  0  0  0  0  0  0  0  0  0  0  0
  -11.1096  -16.9703   24.7266 H   0  0  0  0  0  0  0  0  0  0  0  0
  -11.1668  -15.3971   23.3659 H   0  0  0  0  0  0  0  0  0  0  0  0
   -8.7003  -15.5287   25.1068 H   0  0  0  0  0  0  0  0  0  0  0  0
   -8.1449  -17.3692   22.0921 H   0  0  0  0  0  0  0  0  0  0  0  0
   -7.0416  -16.8861   22.7636 H   0  0  0  0  0  0  0  0  0  0  0  0
   -8.7691  -15.7750   19.9615 H   0  0  0  0  0  0  0  0  0  0  0  0
   -5.5948  -13.3584   17.4171 H   0  0  0  0  0  0  0  0  0  0  0  0
   -3.5818  -12.1066   17.2643 H   0  0  0  0  0  0  0  0  0  0  0  0
   -3.1005   -8.3017   13.7718 H   0  0  0  0  0  0  0  0  0  0  0  0
   -4.7042   -8.1513   13.0352 H   0  0  0  0  0  0  0  0  0  0  0  0
   -4.2007   -7.0255   14.3205 H   0  0  0  0  0  0  0  0  0  0  0  0
   -8.0921  -11.7681   16.7639 H   0  0  0  0  0  0  0  0  0  0  0  0
   -8.9963  -16.1835   26.8398 H   0  0  0  0  0  0  0  0  0  0  0  0
   -8.2241  -18.2348   28.1768 H   0  0  0  0  0  0  0  0  0  0  0  0
   -9.9062  -18.0205   28.4873 H   0  0  0  0  0  0  0  0  0  0  0  0
  -11.3598  -21.2007   26.1289 H   0  0  0  0  0  0  0  0  0  0  0  0
  -11.8978  -23.3329   27.7983 H   0  0  0  0  0  0  0  0  0  0  0  0
  1  2  1  0
  2  3  1  0
  3  4  1  0
  4  5  1  0
  5  6  1  0
  6  7  2  0
  6  8  1  0
  8  9  2  0
  9 10  1  0
 10 11  2  0
 11 12  1  0
 12 13  2  0
 13 14  1  0
 13 15  1  0
 15 16  1  0
 16 17  2  0
  3 18  1  0
 18 19  1  0
 19 20  1  0
 20 21  1  0
 21 22  2  0
 22 23  1  0
 23 24  1  0
 17  8  1  0
 24 20  2  0
 16 11  1  0
  1 25  1  0
  1 26  1  0
  1 27  1  0
  2 28  1  0
  2 29  1  0
  3 30  1  0
  4 31  1  0
  4 32  1  0
  5 33  1  0
  9 34  1  0
 10 35  1  0
 14 36  1  0
 14 37  1  0
 14 38  1  0
 17 39  1  0
 18 40  1  0
 19 41  1  0
 19 42  1  0
 21 43  1  0
 22 44  1  0
M  END
>  <Energy>  (1114) 
1459.9848817924546

>  <compound_id>  (1114) 
40957

>  <target_id>  (1114) 
1

>  <reference_id>  (1114) 
69

>  <inspiration_ids>  (1114) 
[69, 82]

>  <energy_score>  (1114) 
1299.9116451957998

>  <distance_score>  (1114) 
12.424826646311

>  <path>  (1114) 
/opt/xchem-fragalysis-2/maxwin/BulkDock/SCRATCH/511020/C40957-P69/C40957-P69.minimised.mol

>  <scratch_subdir>  (1114) 
/opt/xchem-fragalysis-2/maxwin/BulkDock/SCRATCH/511020/C40957-P69

>  <fragmenstein_runtime>  (1114) 
64.92503809928894

>  <fragmenstein_outcome>  (1114) 
too moved

>  <fragmenstein_mode>  (1114) 
expansion

>  <fragmenstein_error>  (1114) 


$$$$
C40957-P82
     RDKit          3D

 44 46  0  0  0  0  0  0  0  0999 V2000
   -9.8072  -10.8083   23.7701 C   0  0  0  0  0  0  0  0  0  0  0  0
  -11.2064  -11.1532   23.8515 C   0  0  0  0  0  0  0  0  0  0  0  0
  -11.5955  -11.2931   22.3976 C   0  0  0  0  0  0  0  0  0  0  0  0
  -11.5761   -9.2329   21.6053 C   0  0  0  0  0  0  0  0  0  0  0  0
  -10.7856   -8.2111   19.9964 N   0  0  0  0  0  0  0  0  0  0  0  0
   -9.2408   -7.2392   19.8133 C   0  0  0  0  0  0  0  0  0  0  0  0
   -8.3300   -7.1221   20.6496 O   0  0  0  0  0  0  0  0  0  0  0  0
   -8.9601   -6.2492   18.5552 C   0  0  0  0  0  0  0  0  0  0  0  0
   -9.9235   -5.6041   17.6920 C   0  0  0  0  0  0  0  0  0  0  0  0
   -9.5877   -4.8749   16.4938 C   0  0  0  0  0  0  0  0  0  0  0  0
   -8.2329   -4.8092   16.1482 C   0  0  0  0  0  0  0  0  0  0  0  0
   -7.6603   -4.7157   14.8858 N   0  0  0  0  0  0  0  0  0  0  0  0
   -6.3697   -4.9413   15.0275 C   0  0  0  0  0  0  0  0  0  0  0  0
   -5.4688   -5.6297   14.0724 C   0  0  0  0  0  0  0  0  0  0  0  0
   -5.7735   -4.5606   16.5936 S   0  0  0  0  0  0  0  0  0  0  0  0
   -7.3304   -5.0123   17.1901 C   0  0  0  0  0  0  0  0  0  0  0  0
   -7.7313   -5.5594   18.4405 C   0  0  0  0  0  0  0  0  0  0  0  0
  -11.0891  -13.2057   21.8872 N   0  0  0  0  0  0  0  0  0  0  0  0
  -11.5235  -14.9237   22.7262 C   0  0  0  0  0  0  0  0  0  0  0  0
  -13.0020  -15.9768   23.0542 C   0  0  0  0  0  0  0  0  0  0  0  0
  -14.0643  -16.4774   22.2232 C   0  0  0  0  0  0  0  0  0  0  0  0
  -14.9475  -17.1153   23.0567 C   0  0  0  0  0  0  0  0  0  0  0  0
  -14.4324  -17.0783   24.2902 O   0  0  0  0  0  0  0  0  0  0  0  0
  -13.2508  -16.3579   24.2771 N   0  0  0  0  0  0  0  0  0  0  0  0
   -9.6069  -11.0077   24.8243 H   0  0  0  0  0  0  0  0  0  0  0  0
   -9.5912   -9.8227   23.3498 H   0  0  0  0  0  0  0  0  0  0  0  0
   -9.1746  -11.3005   23.0392 H   0  0  0  0  0  0  0  0  0  0  0  0
  -11.4588  -11.9970   24.4829 H   0  0  0  0  0  0  0  0  0  0  0  0
  -11.4507  -10.2617   24.4023 H   0  0  0  0  0  0  0  0  0  0  0  0
  -10.5849  -11.6284   22.2707 H   0  0  0  0  0  0  0  0  0  0  0  0
  -11.1834   -8.6361   22.4623 H   0  0  0  0  0  0  0  0  0  0  0  0
  -12.6394   -9.1724   21.6613 H   0  0  0  0  0  0  0  0  0  0  0  0
  -11.2692   -8.1994   19.1658 H   0  0  0  0  0  0  0  0  0  0  0  0
  -10.9776   -5.8132   17.7491 H   0  0  0  0  0  0  0  0  0  0  0  0
  -10.3582   -4.6322   15.7689 H   0  0  0  0  0  0  0  0  0  0  0  0
   -5.2929   -6.6582   14.4081 H   0  0  0  0  0  0  0  0  0  0  0  0
   -4.4996   -5.1302   14.0267 H   0  0  0  0  0  0  0  0  0  0  0  0
   -5.8965   -5.6987   13.0712 H   0  0  0  0  0  0  0  0  0  0  0  0
   -7.0320   -5.5608   19.2610 H   0  0  0  0  0  0  0  0  0  0  0  0
  -11.3441  -13.4387   20.9232 H   0  0  0  0  0  0  0  0  0  0  0  0
  -11.0075  -15.7308   23.1027 H   0  0  0  0  0  0  0  0  0  0  0  0
  -11.6459  -15.3916   21.6982 H   0  0  0  0  0  0  0  0  0  0  0  0
  -14.1454  -16.4348   21.1551 H   0  0  0  0  0  0  0  0  0  0  0  0
  -15.8789  -17.6463   22.9336 H   0  0  0  0  0  0  0  0  0  0  0  0
  1  2  1  0
  2  3  1  0
  3  4  1  0
  4  5  1  0
  5  6  1  0
  6  7  2  0
  6  8  1  0
  8  9  2  0
  9 10  1  0
 10 11  2  0
 11 12  1  0
 12 13  2  0
 13 14  1  0
 13 15  1  0
 15 16  1  0
 16 17  2  0
  3 18  1  0
 18 19  1  0
 19 20  1  0
 20 21  1  0
 21 22  2  0
 22 23  1  0
 23 24  1  0
 17  8  1  0
 24 20  2  0
 16 11  1  0
  1 25  1  0
  1 26  1  0
  1 27  1  0
  2 28  1  0
  2 29  1  0
  3 30  1  0
  4 31  1  0
  4 32  1  0
  5 33  1  0
  9 34  1  0
 10 35  1  0
 14 36  1  0
 14 37  1  0
 14 38  1  0
 17 39  1  0
 18 40  1  0
 19 41  1  0
 19 42  1  0
 21 43  1  0
 22 44  1  0
M  END
>  <Energy>  (1115) 
759.76809349569646

>  <compound_id>  (1115) 
40957

>  <target_id>  (1115) 
1

>  <reference_id>  (1115) 
82

>  <inspiration_ids>  (1115) 
[69, 82]

>  <energy_score>  (1115) 
599.6948568990113

>  <distance_score>  (1115) 
11.853153278713199

>  <path>  (1115) 
/opt/xchem-fragalysis-2/maxwin/BulkDock/SCRATCH/511020/C40957-P82/C40957-P82.minimised.mol

>  <scratch_subdir>  (1115) 
/opt/xchem-fragalysis-2/maxwin/BulkDock/SCRATCH/511020/C40957-P82

>  <fragmenstein_runtime>  (1115) 
41.58240342140198

>  <fragmenstein_outcome>  (1115) 
too moved

>  <fragmenstein_mode>  (1115) 
expansion

>  <fragmenstein_error>  (1115) 


$$$$
C23545-P69
     RDKit          3D

 39 41  0  0  0  0  0  0  0  0999 V2000
   -8.2866  -17.3362   18.7083 C   0  0  0  0  0  0  0  0  0  0  0  0
   -8.5423  -16.0231   19.5595 C   0  0  0  0  0  0  0  0  0  0  0  0
   -8.2601  -16.6760   21.0275 C   0  0  0  0  0  0  0  0  0  0  0  0
   -9.1298  -17.8184   21.4608 N   0  0  0  0  0  0  0  0  0  0  0  0
  -10.3601  -17.7620   22.0788 C   0  0  0  0  0  0  0  0  0  0  0  0
  -10.7403  -19.0601   22.3372 C   0  0  0  0  0  0  0  0  0  0  0  0
   -9.6531  -19.8348   21.9022 C   0  0  0  0  0  0  0  0  0  0  0  0
   -8.6369  -19.0830   21.4638 N   0  0  0  0  0  0  0  0  0  0  0  0
   -8.1082  -14.7402   18.3057 N   0  0  0  0  0  0  0  0  0  0  0  0
   -8.5515  -12.8431   18.2094 C   0  0  0  0  0  0  0  0  0  0  0  0
   -9.0947  -12.1391   18.9934 O   0  0  0  0  0  0  0  0  0  0  0  0
   -8.0415  -12.5333   16.5365 N   0  0  0  0  0  0  0  0  0  0  0  0
   -8.3022  -10.9079   15.2328 C   0  0  0  0  0  0  0  0  0  0  0  0
   -7.3569   -9.7873   13.7488 C   0  0  0  0  0  0  0  0  0  0  0  0
   -7.4642   -8.5595   13.0136 N   0  0  0  0  0  0  0  0  0  0  0  0
   -6.3931   -8.2013   11.4603 C   0  0  0  0  0  0  0  0  0  0  0  0
   -6.4736   -8.0298    9.9971 C   0  0  0  0  0  0  0  0  0  0  0  0
   -6.5507   -6.4538    9.5064 C   0  0  0  0  0  0  0  0  0  0  0  0
   -6.8874   -5.3301   10.0962 C   0  0  0  0  0  0  0  0  0  0  0  0
   -6.1474   -5.6931   11.5531 C   0  0  0  0  0  0  0  0  0  0  0  0
   -5.5424   -7.2515   11.7399 C   0  0  0  0  0  0  0  0  0  0  0  0
   -5.3681   -9.0096   12.9110 S   0  0  0  0  0  0  0  0  0  0  0  0
   -9.0973  -18.0620   18.8313 H   0  0  0  0  0  0  0  0  0  0  0  0
   -8.2170  -17.1087   17.6461 H   0  0  0  0  0  0  0  0  0  0  0  0
   -7.3416  -17.8159   18.9833 H   0  0  0  0  0  0  0  0  0  0  0  0
   -9.6140  -15.9670   19.4608 H   0  0  0  0  0  0  0  0  0  0  0  0
   -8.3929  -16.0156   21.8683 H   0  0  0  0  0  0  0  0  0  0  0  0
   -7.2528  -17.1080   21.0462 H   0  0  0  0  0  0  0  0  0  0  0  0
  -10.8728  -16.8244   22.2242 H   0  0  0  0  0  0  0  0  0  0  0  0
  -11.6766  -19.4053   22.7529 H   0  0  0  0  0  0  0  0  0  0  0  0
   -9.5467  -20.9143   21.9069 H   0  0  0  0  0  0  0  0  0  0  0  0
   -7.5635  -15.0447   17.5045 H   0  0  0  0  0  0  0  0  0  0  0  0
   -7.6866  -13.3832   16.1406 H   0  0  0  0  0  0  0  0  0  0  0  0
   -7.4499  -10.1631   15.4298 H   0  0  0  0  0  0  0  0  0  0  0  0
   -8.6962  -11.4876   14.3861 H   0  0  0  0  0  0  0  0  0  0  0  0
   -5.5959   -8.4905    9.4996 H   0  0  0  0  0  0  0  0  0  0  0  0
   -5.4849   -6.2222    9.9168 H   0  0  0  0  0  0  0  0  0  0  0  0
   -7.7270   -4.8214    9.6712 H   0  0  0  0  0  0  0  0  0  0  0  0
   -7.0227   -5.5710   12.2593 H   0  0  0  0  0  0  0  0  0  0  0  0
  1  2  1  0
  2  3  1  0
  3  4  1  0
  4  5  1  0
  5  6  2  0
  6  7  1  0
  7  8  2  0
  2  9  1  0
  9 10  1  0
 10 11  2  0
 10 12  1  0
 12 13  1  0
 13 14  1  0
 14 15  2  0
 15 16  1  0
 16 17  2  0
 17 18  1  0
 18 19  2  0
 19 20  1  0
 20 21  2  0
 21 22  1  0
  8  4  1  0
 22 14  1  0
 21 16  1  0
  1 23  1  0
  1 24  1  0
  1 25  1  0
  2 26  1  0
  3 27  1  0
  3 28  1  0
  5 29  1  0
  6 30  1  0
  7 31  1  0
  9 32  1  0
 12 33  1  0
 13 34  1  0
 13 35  1  0
 17 36  1  0
 18 37  1  0
 19 38  1  0
 20 39  1  0
M  END
>  <Energy>  (1116) 
1051.9119972554058

>  <compound_id>  (1116) 
23545

>  <target_id>  (1116) 
1

>  <reference_id>  (1116) 
69

>  <inspiration_ids>  (1116) 
[69, 82]

>  <energy_score>  (1116) 
1037.2197715523553

>  <distance_score>  (1116) 
10.217918554969765

>  <path>  (1116) 
/opt/xchem-fragalysis-2/maxwin/BulkDock/SCRATCH/511020/C23545-P69/C23545-P69.minimised.mol

>  <scratch_subdir>  (1116) 
/opt/xchem-fragalysis-2/maxwin/BulkDock/SCRATCH/511020/C23545-P69

>  <fragmenstein_runtime>  (1116) 
25.910977125167847

>  <fragmenstein_outcome>  (1116) 
too moved

>  <fragmenstein_mode>  (1116) 
expansion

>  <fragmenstein_error>  (1116) 


$$$$
C23545-P82
     RDKit          3D

 39 41  0  0  0  0  0  0  0  0999 V2000
  -12.1921  -20.7000   17.7952 C   0  0  0  0  0  0  0  0  0  0  0  0
  -13.1208  -19.4900   17.9700 C   0  0  0  0  0  0  0  0  0  0  0  0
  -12.7969  -18.7856   19.3492 C   0  0  0  0  0  0  0  0  0  0  0  0
  -12.8701  -19.6003   20.5777 N   0  0  0  0  0  0  0  0  0  0  0  0
  -13.9430  -19.7143   21.4291 C   0  0  0  0  0  0  0  0  0  0  0  0
  -13.5212  -20.4432   22.5194 C   0  0  0  0  0  0  0  0  0  0  0  0
  -12.1720  -20.7222   22.2548 C   0  0  0  0  0  0  0  0  0  0  0  0
  -11.7601  -20.1983   21.0923 N   0  0  0  0  0  0  0  0  0  0  0  0
  -13.1352  -18.6244   16.6911 N   0  0  0  0  0  0  0  0  0  0  0  0
  -14.1494  -17.5926   16.1964 C   0  0  0  0  0  0  0  0  0  0  0  0
  -15.1069  -17.1771   16.7296 O   0  0  0  0  0  0  0  0  0  0  0  0
  -13.5759  -17.2326   14.7910 N   0  0  0  0  0  0  0  0  0  0  0  0
  -14.1275  -16.3505   13.7071 C   0  0  0  0  0  0  0  0  0  0  0  0
  -13.3913  -15.6740   12.4849 C   0  0  0  0  0  0  0  0  0  0  0  0
  -14.0886  -15.2346   11.4358 N   0  0  0  0  0  0  0  0  0  0  0  0
  -13.3445  -14.4331   10.5619 C   0  0  0  0  0  0  0  0  0  0  0  0
  -13.8404  -13.6902    9.4563 C   0  0  0  0  0  0  0  0  0  0  0  0
  -13.0172  -12.8103    8.7363 C   0  0  0  0  0  0  0  0  0  0  0  0
  -11.6915  -12.6579    9.0998 C   0  0  0  0  0  0  0  0  0  0  0  0
  -11.1744  -13.3849   10.1829 C   0  0  0  0  0  0  0  0  0  0  0  0
  -12.0024  -14.2954   10.9036 C   0  0  0  0  0  0  0  0  0  0  0  0
  -11.7282  -15.2637   12.3587 S   0  0  0  0  0  0  0  0  0  0  0  0
  -12.4066  -21.2095   16.8494 H   0  0  0  0  0  0  0  0  0  0  0  0
  -11.1437  -20.3844   17.7670 H   0  0  0  0  0  0  0  0  0  0  0  0
  -12.3187  -21.4317   18.5981 H   0  0  0  0  0  0  0  0  0  0  0  0
  -14.1517  -19.8593   18.0416 H   0  0  0  0  0  0  0  0  0  0  0  0
  -11.7869  -18.3584   19.3165 H   0  0  0  0  0  0  0  0  0  0  0  0
  -13.4896  -17.9474   19.4926 H   0  0  0  0  0  0  0  0  0  0  0  0
  -14.8990  -19.2678   21.1920 H   0  0  0  0  0  0  0  0  0  0  0  0
  -14.1094  -20.7274   23.3817 H   0  0  0  0  0  0  0  0  0  0  0  0
  -11.4705  -21.2799   22.8611 H   0  0  0  0  0  0  0  0  0  0  0  0
  -12.3846  -18.6976   16.0260 H   0  0  0  0  0  0  0  0  0  0  0  0
  -12.7901  -17.8228   14.5920 H   0  0  0  0  0  0  0  0  0  0  0  0
  -14.9311  -16.9545   13.2658 H   0  0  0  0  0  0  0  0  0  0  0  0
  -14.6315  -15.5343   14.2407 H   0  0  0  0  0  0  0  0  0  0  0  0
  -14.8905  -13.7893    9.1960 H   0  0  0  0  0  0  0  0  0  0  0  0
  -13.4286  -12.2434    7.9054 H   0  0  0  0  0  0  0  0  0  0  0  0
  -11.0604  -11.9533    8.5649 H   0  0  0  0  0  0  0  0  0  0  0  0
  -10.1696  -13.1627   10.5198 H   0  0  0  0  0  0  0  0  0  0  0  0
  1  2  1  0
  2  3  1  0
  3  4  1  0
  4  5  1  0
  5  6  2  0
  6  7  1  0
  7  8  2  0
  2  9  1  0
  9 10  1  0
 10 11  2  0
 10 12  1  0
 12 13  1  0
 13 14  1  0
 14 15  2  0
 15 16  1  0
 16 17  2  0
 17 18  1  0
 18 19  2  0
 19 20  1  0
 20 21  2  0
 21 22  1  0
  8  4  1  0
 22 14  1  0
 21 16  1  0
  1 23  1  0
  1 24  1  0
  1 25  1  0
  2 26  1  0
  3 27  1  0
  3 28  1  0
  5 29  1  0
  6 30  1  0
  7 31  1  0
  9 32  1  0
 12 33  1  0
 13 34  1  0
 13 35  1  0
 17 36  1  0
 18 37  1  0
 19 38  1  0
 20 39  1  0
M  END
>  <Energy>  (1117) 
2.9699451125681331

>  <compound_id>  (1117) 
23545

>  <target_id>  (1117) 
1

>  <reference_id>  (1117) 
82

>  <inspiration_ids>  (1117) 
[69, 82]

>  <energy_score>  (1117) 
-11.722280590476373

>  <distance_score>  (1117) 
13.090751140544699

>  <path>  (1117) 
/opt/xchem-fragalysis-2/maxwin/BulkDock/SCRATCH/511020/C23545-P82/C23545-P82.minimised.mol

>  <scratch_subdir>  (1117) 
/opt/xchem-fragalysis-2/maxwin/BulkDock/SCRATCH/511020/C23545-P82

>  <fragmenstein_runtime>  (1117) 
39.75644779205322

>  <fragmenstein_outcome>  (1117) 
too moved

>  <fragmenstein_mode>  (1117) 
expansion

>  <fragmenstein_error>  (1117) 


$$$$
C40958-P69
     RDKit          3D

 39 41  0  0  0  0  0  0  0  0999 V2000
   -8.0428  -12.8799   18.3399 O   0  0  0  0  0  0  0  0  0  0  0  0
   -8.9451  -12.6746   19.0986 C   0  0  0  0  0  0  0  0  0  0  0  0
   -8.8893  -13.0818   20.8498 N   0  0  0  0  0  0  0  0  0  0  0  0
   -7.7341  -13.6375   21.7354 C   0  0  0  0  0  0  0  0  0  0  0  0
   -7.9037  -14.9570   22.6912 C   0  0  0  0  0  0  0  0  0  0  0  0
   -9.1379  -14.8853   23.4531 O   0  0  0  0  0  0  0  0  0  0  0  0
   -7.6894  -16.4197   22.1722 C   0  0  0  0  0  0  0  0  0  0  0  0
   -8.8415  -17.2378   21.7592 N   0  0  0  0  0  0  0  0  0  0  0  0
   -9.5178  -17.8938   22.8650 C   0  0  0  0  0  0  0  0  0  0  0  0
  -10.3745  -19.0343   22.4241 C   0  0  0  0  0  0  0  0  0  0  0  0
  -10.2778  -19.8417   21.2682 C   0  0  0  0  0  0  0  0  0  0  0  0
  -11.2683  -20.7732   21.4254 C   0  0  0  0  0  0  0  0  0  0  0  0
  -11.9258  -20.5466   22.5883 O   0  0  0  0  0  0  0  0  0  0  0  0
  -11.3646  -19.4538   23.2282 N   0  0  0  0  0  0  0  0  0  0  0  0
  -10.4223  -12.0408   18.1498 C   0  0  0  0  0  0  0  0  0  0  0  0
  -11.5816  -11.3592   18.3008 C   0  0  0  0  0  0  0  0  0  0  0  0
  -13.0107  -11.0022   17.3511 C   0  0  0  0  0  0  0  0  0  0  0  0
  -12.5842  -10.6331   16.0162 C   0  0  0  0  0  0  0  0  0  0  0  0
  -12.7030   -9.2530   14.4476 S   0  0  0  0  0  0  0  0  0  0  0  0
  -10.6063   -9.3466   14.2113 C   0  0  0  0  0  0  0  0  0  0  0  0
  -10.0703  -10.2575   14.9977 N   0  0  0  0  0  0  0  0  0  0  0  0
  -11.1749  -11.0866   15.8609 C   0  0  0  0  0  0  0  0  0  0  0  0
  -10.7664  -12.1076   16.7697 C   0  0  0  0  0  0  0  0  0  0  0  0
   -9.7384  -12.7235   21.3147 H   0  0  0  0  0  0  0  0  0  0  0  0
   -7.7257  -12.8683   22.5268 H   0  0  0  0  0  0  0  0  0  0  0  0
   -6.7593  -13.4836   21.2856 H   0  0  0  0  0  0  0  0  0  0  0  0
   -7.1068  -14.8095   23.4352 H   0  0  0  0  0  0  0  0  0  0  0  0
   -8.9790  -15.3931   24.2703 H   0  0  0  0  0  0  0  0  0  0  0  0
   -6.9910  -16.3966   21.3342 H   0  0  0  0  0  0  0  0  0  0  0  0
   -7.1410  -16.9663   22.9517 H   0  0  0  0  0  0  0  0  0  0  0  0
   -9.4948  -16.6379   21.2394 H   0  0  0  0  0  0  0  0  0  0  0  0
   -8.7552  -18.2885   23.5288 H   0  0  0  0  0  0  0  0  0  0  0  0
  -10.1256  -17.1694   23.4153 H   0  0  0  0  0  0  0  0  0  0  0  0
   -9.5710  -19.7665   20.4554 H   0  0  0  0  0  0  0  0  0  0  0  0
  -11.6066  -21.6211   20.8486 H   0  0  0  0  0  0  0  0  0  0  0  0
  -11.3418  -10.4340   18.8788 H   0  0  0  0  0  0  0  0  0  0  0  0
  -13.7662  -10.5161   17.9530 H   0  0  0  0  0  0  0  0  0  0  0  0
  -10.1377   -9.2665   13.2479 H   0  0  0  0  0  0  0  0  0  0  0  0
  -10.8712  -12.8747   16.0383 H   0  0  0  0  0  0  0  0  0  0  0  0
  1  2  2  0
  2  3  1  0
  3  4  1  0
  4  5  1  0
  5  6  1  0
  5  7  1  0
  7  8  1  0
  8  9  1  0
  9 10  1  0
 10 11  1  0
 11 12  2  0
 12 13  1  0
 13 14  1  0
  2 15  1  0
 15 16  2  0
 16 17  1  0
 17 18  2  0
 18 19  1  0
 19 20  1  0
 20 21  2  0
 21 22  1  0
 22 23  2  0
 14 10  2  0
 23 15  1  0
 22 18  1  0
  3 24  1  0
  4 25  1  0
  4 26  1  0
  5 27  1  0
  6 28  1  0
  7 29  1  0
  7 30  1  0
  8 31  1  0
  9 32  1  0
  9 33  1  0
 11 34  1  0
 12 35  1  0
 16 36  1  0
 17 37  1  0
 20 38  1  0
 23 39  1  0
M  END
>  <Energy>  (1118) 
444.66415685692601

>  <compound_id>  (1118) 
40958

>  <target_id>  (1118) 
1

>  <reference_id>  (1118) 
69

>  <inspiration_ids>  (1118) 
[69, 82]

>  <energy_score>  (1118) 
296.7535266833604

>  <distance_score>  (1118) 
13.221948946555834

>  <path>  (1118) 
/opt/xchem-fragalysis-2/maxwin/BulkDock/SCRATCH/511020/C40958-P69/C40958-P69.minimised.mol

>  <scratch_subdir>  (1118) 
/opt/xchem-fragalysis-2/maxwin/BulkDock/SCRATCH/511020/C40958-P69

>  <fragmenstein_runtime>  (1118) 
28.20660424232483

>  <fragmenstein_outcome>  (1118) 
too moved

>  <fragmenstein_mode>  (1118) 
expansion

>  <fragmenstein_error>  (1118) 


$$$$
C40958-P82
     RDKit          3D

 39 41  0  0  0  0  0  0  0  0999 V2000
   -8.9253  -13.1724   19.1343 O   0  0  0  0  0  0  0  0  0  0  0  0
   -7.7661  -12.8238   19.1246 C   0  0  0  0  0  0  0  0  0  0  0  0
   -6.6380  -13.0215   20.2073 N   0  0  0  0  0  0  0  0  0  0  0  0
   -6.7023  -13.6353   21.6645 C   0  0  0  0  0  0  0  0  0  0  0  0
   -7.5074  -14.9065   22.4011 C   0  0  0  0  0  0  0  0  0  0  0  0
   -8.7549  -14.5311   23.0396 O   0  0  0  0  0  0  0  0  0  0  0  0
   -7.6646  -16.3607   21.8333 C   0  0  0  0  0  0  0  0  0  0  0  0
   -8.5616  -17.2321   22.6788 N   0  0  0  0  0  0  0  0  0  0  0  0
   -8.6382  -18.5970   22.0977 C   0  0  0  0  0  0  0  0  0  0  0  0
   -9.9938  -19.2286   22.2841 C   0  0  0  0  0  0  0  0  0  0  0  0
  -10.4468  -20.4509   21.7244 C   0  0  0  0  0  0  0  0  0  0  0  0
  -11.7332  -20.5758   22.1754 C   0  0  0  0  0  0  0  0  0  0  0  0
  -12.0487  -19.5065   22.9425 O   0  0  0  0  0  0  0  0  0  0  0  0
  -10.9586  -18.6579   23.0255 N   0  0  0  0  0  0  0  0  0  0  0  0
   -7.4711  -11.9373   17.8137 C   0  0  0  0  0  0  0  0  0  0  0  0
   -8.2559  -12.1050   16.4981 C   0  0  0  0  0  0  0  0  0  0  0  0
   -8.4525  -11.1607   14.9668 C   0  0  0  0  0  0  0  0  0  0  0  0
   -7.4895   -9.7092   15.1334 C   0  0  0  0  0  0  0  0  0  0  0  0
   -7.2218   -8.6718   17.2512 S   0  0  0  0  0  0  0  0  0  0  0  0
   -6.7526   -7.1400   17.0931 C   0  0  0  0  0  0  0  0  0  0  0  0
   -6.8135   -7.9353   16.1303 N   0  0  0  0  0  0  0  0  0  0  0  0
   -6.5802   -9.7633   16.3455 C   0  0  0  0  0  0  0  0  0  0  0  0
   -6.4825  -11.0070   17.4109 C   0  0  0  0  0  0  0  0  0  0  0  0
   -5.7631  -12.6796   19.8453 H   0  0  0  0  0  0  0  0  0  0  0  0
   -6.8857  -12.7746   22.3168 H   0  0  0  0  0  0  0  0  0  0  0  0
   -5.6424  -13.8856   21.8178 H   0  0  0  0  0  0  0  0  0  0  0  0
   -6.8554  -15.0540   23.2772 H   0  0  0  0  0  0  0  0  0  0  0  0
   -8.9043  -15.2434   23.6950 H   0  0  0  0  0  0  0  0  0  0  0  0
   -6.6712  -16.8176   21.7561 H   0  0  0  0  0  0  0  0  0  0  0  0
   -8.0913  -16.3097   20.8279 H   0  0  0  0  0  0  0  0  0  0  0  0
   -9.5069  -16.8486   22.5586 H   0  0  0  0  0  0  0  0  0  0  0  0
   -7.8504  -19.2153   22.5355 H   0  0  0  0  0  0  0  0  0  0  0  0
   -8.4580  -18.5613   21.0152 H   0  0  0  0  0  0  0  0  0  0  0  0
   -9.9113  -21.1459   21.0931 H   0  0  0  0  0  0  0  0  0  0  0  0
  -12.5123  -21.3133   22.0522 H   0  0  0  0  0  0  0  0  0  0  0  0
   -8.0906  -13.1655   16.3940 H   0  0  0  0  0  0  0  0  0  0  0  0
   -8.7211  -11.5351   13.9872 H   0  0  0  0  0  0  0  0  0  0  0  0
   -6.5572   -6.1022   17.3015 H   0  0  0  0  0  0  0  0  0  0  0  0
   -5.4533  -11.2689   17.6453 H   0  0  0  0  0  0  0  0  0  0  0  0
  1  2  2  0
  2  3  1  0
  3  4  1  0
  4  5  1  0
  5  6  1  0
  5  7  1  0
  7  8  1  0
  8  9  1  0
  9 10  1  0
 10 11  1  0
 11 12  2  0
 12 13  1  0
 13 14  1  0
  2 15  1  0
 15 16  2  0
 16 17  1  0
 17 18  2  0
 18 19  1  0
 19 20  1  0
 20 21  2  0
 21 22  1  0
 22 23  2  0
 14 10  2  0
 23 15  1  0
 22 18  1  0
  3 24  1  0
  4 25  1  0
  4 26  1  0
  5 27  1  0
  6 28  1  0
  7 29  1  0
  7 30  1  0
  8 31  1  0
  9 32  1  0
  9 33  1  0
 11 34  1  0
 12 35  1  0
 16 36  1  0
 17 37  1  0
 20 38  1  0
 23 39  1  0
M  END
>  <Energy>  (1119) 
715.56222301221953

>  <compound_id>  (1119) 
40958

>  <target_id>  (1119) 
1

>  <reference_id>  (1119) 
82

>  <inspiration_ids>  (1119) 
[69, 82]

>  <energy_score>  (1119) 
567.6515928386511

>  <distance_score>  (1119) 
12.703824650479763

>  <path>  (1119) 
/opt/xchem-fragalysis-2/maxwin/BulkDock/SCRATCH/511020/C40958-P82/C40958-P82.minimised.mol

>  <scratch_subdir>  (1119) 
/opt/xchem-fragalysis-2/maxwin/BulkDock/SCRATCH/511020/C40958-P82

>  <fragmenstein_runtime>  (1119) 
22.63756251335144

>  <fragmenstein_outcome>  (1119) 
too moved

>  <fragmenstein_mode>  (1119) 
expansion

>  <fragmenstein_error>  (1119) 


$$$$
C52436-P69
     RDKit          3D

 36 38  0  0  0  0  0  0  0  0999 V2000
  -12.2434  -15.8504   23.0483 C   0  0  0  0  0  0  0  0  0  0  0  0
  -12.4761  -15.9952   21.5436 O   0  0  0  0  0  0  0  0  0  0  0  0
  -11.2969  -15.4793   20.1796 C   0  0  0  0  0  0  0  0  0  0  0  0
   -9.2956  -15.3305   19.5290 C   0  0  0  0  0  0  0  0  0  0  0  0
   -8.9826  -15.0730   17.9879 O   0  0  0  0  0  0  0  0  0  0  0  0
   -8.8463  -13.7374   17.4769 C   0  0  0  0  0  0  0  0  0  0  0  0
   -9.1548  -12.7462   18.1248 O   0  0  0  0  0  0  0  0  0  0  0  0
   -8.2769  -13.7041   16.0351 C   0  0  0  0  0  0  0  0  0  0  0  0
   -8.0726  -12.3641   15.2267 C   0  0  0  0  0  0  0  0  0  0  0  0
   -9.0420  -11.9202   14.3077 C   0  0  0  0  0  0  0  0  0  0  0  0
   -8.7612  -10.9311   13.3294 C   0  0  0  0  0  0  0  0  0  0  0  0
   -7.4771  -10.3532   13.2421 C   0  0  0  0  0  0  0  0  0  0  0  0
   -7.0157   -9.4882   12.2565 N   0  0  0  0  0  0  0  0  0  0  0  0
   -5.7780   -9.1372   12.5103 C   0  0  0  0  0  0  0  0  0  0  0  0
   -5.0860   -9.8079   13.9235 S   0  0  0  0  0  0  0  0  0  0  0  0
   -6.5410  -10.7067   14.2154 C   0  0  0  0  0  0  0  0  0  0  0  0
   -6.8249  -11.6888   15.2129 C   0  0  0  0  0  0  0  0  0  0  0  0
   -7.7239  -15.9137   20.6407 C   0  0  0  0  0  0  0  0  0  0  0  0
   -7.7298  -16.6843   21.8253 N   0  0  0  0  0  0  0  0  0  0  0  0
   -6.8833  -17.8155   22.0621 C   0  0  0  0  0  0  0  0  0  0  0  0
   -5.9913  -18.1491   21.1098 C   0  0  0  0  0  0  0  0  0  0  0  0
   -6.2496  -17.2739   19.7011 S   0  0  0  0  0  0  0  0  0  0  0  0
  -13.1119  -16.2142   23.5736 H   0  0  0  0  0  0  0  0  0  0  0  0
  -11.4397  -16.3464   23.5480 H   0  0  0  0  0  0  0  0  0  0  0  0
  -11.9829  -14.8816   23.4064 H   0  0  0  0  0  0  0  0  0  0  0  0
  -12.2210  -15.5624   19.6373 H   0  0  0  0  0  0  0  0  0  0  0  0
  -11.5255  -14.8384   21.0971 H   0  0  0  0  0  0  0  0  0  0  0  0
   -8.9930  -14.2589   19.6817 H   0  0  0  0  0  0  0  0  0  0  0  0
   -7.2973  -14.1972   16.0750 H   0  0  0  0  0  0  0  0  0  0  0  0
   -8.9266  -14.3430   15.4237 H   0  0  0  0  0  0  0  0  0  0  0  0
  -10.0233  -12.3950   14.2866 H   0  0  0  0  0  0  0  0  0  0  0  0
   -9.5156  -10.6575   12.5970 H   0  0  0  0  0  0  0  0  0  0  0  0
   -5.2259   -8.4621   11.8704 H   0  0  0  0  0  0  0  0  0  0  0  0
   -6.0377  -11.9845   15.9030 H   0  0  0  0  0  0  0  0  0  0  0  0
   -6.9253  -18.3466   22.9979 H   0  0  0  0  0  0  0  0  0  0  0  0
   -5.2518  -18.9344   21.1486 H   0  0  0  0  0  0  0  0  0  0  0  0
  1  2  1  0
  2  3  1  0
  3  4  1  0
  4  5  1  0
  5  6  1  0
  6  7  2  0
  6  8  1  0
  8  9  1  0
  9 10  2  0
 10 11  1  0
 11 12  2  0
 12 13  1  0
 13 14  2  0
 14 15  1  0
 15 16  1  0
 16 17  2  0
  4 18  1  0
 18 19  2  0
 19 20  1  0
 20 21  2  0
 21 22  1  0
 17  9  1  0
 22 18  1  0
 16 12  1  0
  1 23  1  0
  1 24  1  0
  1 25  1  0
  3 26  1  0
  3 27  1  0
  4 28  1  0
  8 29  1  0
  8 30  1  0
 10 31  1  0
 11 32  1  0
 14 33  1  0
 17 34  1  0
 20 35  1  0
 21 36  1  0
M  END
>  <Energy>  (1120) 
483.09762246223983

>  <compound_id>  (1120) 
52436

>  <target_id>  (1120) 
1

>  <reference_id>  (1120) 
69

>  <inspiration_ids>  (1120) 
[69, 82]

>  <energy_score>  (1120) 
283.02572632593836

>  <distance_score>  (1120) 
13.595017957438532

>  <path>  (1120) 
/opt/xchem-fragalysis-2/maxwin/BulkDock/SCRATCH/511020/C52436-P69/C52436-P69.minimised.mol

>  <scratch_subdir>  (1120) 
/opt/xchem-fragalysis-2/maxwin/BulkDock/SCRATCH/511020/C52436-P69

>  <fragmenstein_runtime>  (1120) 
17.419259548187256

>  <fragmenstein_outcome>  (1120) 
too moved

>  <fragmenstein_mode>  (1120) 
expansion

>  <fragmenstein_error>  (1120) 


$$$$
C52436-P82
     RDKit          3D

 36 38  0  0  0  0  0  0  0  0999 V2000
  -15.2546  -16.5454   24.8729 C   0  0  0  0  0  0  0  0  0  0  0  0
  -13.9182  -16.0688   24.6174 O   0  0  0  0  0  0  0  0  0  0  0  0
  -13.4919  -16.4243   23.3117 C   0  0  0  0  0  0  0  0  0  0  0  0
  -11.8638  -15.9347   22.5971 C   0  0  0  0  0  0  0  0  0  0  0  0
  -11.7309  -15.2647   20.6617 O   0  0  0  0  0  0  0  0  0  0  0  0
  -10.4384  -14.8292   19.2722 C   0  0  0  0  0  0  0  0  0  0  0  0
   -9.7770  -15.7144   18.7614 O   0  0  0  0  0  0  0  0  0  0  0  0
   -9.8947  -13.2637   18.6651 C   0  0  0  0  0  0  0  0  0  0  0  0
   -9.2124  -12.8478   17.2310 C   0  0  0  0  0  0  0  0  0  0  0  0
   -8.6983  -13.7017   16.2647 C   0  0  0  0  0  0  0  0  0  0  0  0
   -8.1599  -13.2056   15.0393 C   0  0  0  0  0  0  0  0  0  0  0  0
   -8.0716  -11.8215   14.7551 C   0  0  0  0  0  0  0  0  0  0  0  0
   -7.5511  -11.2317   13.6046 N   0  0  0  0  0  0  0  0  0  0  0  0
   -7.6044   -9.9247   13.7189 C   0  0  0  0  0  0  0  0  0  0  0  0
   -8.2735   -9.3220   15.1804 S   0  0  0  0  0  0  0  0  0  0  0  0
   -8.5356  -10.9426   15.7332 C   0  0  0  0  0  0  0  0  0  0  0  0
   -9.1009  -11.4331   16.9489 C   0  0  0  0  0  0  0  0  0  0  0  0
  -10.7517  -17.1083   23.8805 C   0  0  0  0  0  0  0  0  0  0  0  0
  -10.4117  -17.4323   25.1366 N   0  0  0  0  0  0  0  0  0  0  0  0
  -10.5641  -18.9806   25.2940 C   0  0  0  0  0  0  0  0  0  0  0  0
  -10.5512  -19.8851   24.2783 C   0  0  0  0  0  0  0  0  0  0  0  0
   -9.6517  -19.0542   23.1699 S   0  0  0  0  0  0  0  0  0  0  0  0
  -15.2956  -17.6368   24.7985 H   0  0  0  0  0  0  0  0  0  0  0  0
  -15.5406  -16.2532   25.8848 H   0  0  0  0  0  0  0  0  0  0  0  0
  -15.9685  -16.1047   24.1702 H   0  0  0  0  0  0  0  0  0  0  0  0
  -13.5675  -17.5003   23.3983 H   0  0  0  0  0  0  0  0  0  0  0  0
  -14.2579  -16.1784   22.5602 H   0  0  0  0  0  0  0  0  0  0  0  0
  -12.4800  -16.4977   21.9243 H   0  0  0  0  0  0  0  0  0  0  0  0
   -9.0246  -13.1108   19.2987 H   0  0  0  0  0  0  0  0  0  0  0  0
  -10.5842  -12.4458   18.6356 H   0  0  0  0  0  0  0  0  0  0  0  0
   -8.6958  -14.7781   16.4322 H   0  0  0  0  0  0  0  0  0  0  0  0
   -7.7822  -13.9118   14.3037 H   0  0  0  0  0  0  0  0  0  0  0  0
   -7.2444   -9.2669   12.9393 H   0  0  0  0  0  0  0  0  0  0  0  0
   -9.4556  -10.7139   17.6846 H   0  0  0  0  0  0  0  0  0  0  0  0
  -11.1623  -19.3988   26.0490 H   0  0  0  0  0  0  0  0  0  0  0  0
  -10.9801  -20.8700   24.1701 H   0  0  0  0  0  0  0  0  0  0  0  0
  1  2  1  0
  2  3  1  0
  3  4  1  0
  4  5  1  0
  5  6  1  0
  6  7  2  0
  6  8  1  0
  8  9  1  0
  9 10  2  0
 10 11  1  0
 11 12  2  0
 12 13  1  0
 13 14  2  0
 14 15  1  0
 15 16  1  0
 16 17  2  0
  4 18  1  0
 18 19  2  0
 19 20  1  0
 20 21  2  0
 21 22  1  0
 17  9  1  0
 22 18  1  0
 16 12  1  0
  1 23  1  0
  1 24  1  0
  1 25  1  0
  3 26  1  0
  3 27  1  0
  4 28  1  0
  8 29  1  0
  8 30  1  0
 10 31  1  0
 11 32  1  0
 14 33  1  0
 17 34  1  0
 20 35  1  0
 21 36  1  0
M  END
>  <Energy>  (1121) 
694.01087850727197

>  <compound_id>  (1121) 
52436

>  <target_id>  (1121) 
1

>  <reference_id>  (1121) 
82

>  <inspiration_ids>  (1121) 
[69, 82]

>  <energy_score>  (1121) 
493.9389823709631

>  <distance_score>  (1121) 
13.320483808790188

>  <path>  (1121) 
/opt/xchem-fragalysis-2/maxwin/BulkDock/SCRATCH/511020/C52436-P82/C52436-P82.minimised.mol

>  <scratch_subdir>  (1121) 
/opt/xchem-fragalysis-2/maxwin/BulkDock/SCRATCH/511020/C52436-P82

>  <fragmenstein_runtime>  (1121) 
16.379724502563477

>  <fragmenstein_outcome>  (1121) 
too moved

>  <fragmenstein_mode>  (1121) 
expansion

>  <fragmenstein_error>  (1121) 


$$$$
C11039-P69
     RDKit          3D

 49 52  0  0  0  0  0  0  0  0999 V2000
   -9.4761  -13.9489   14.2146 O   0  0  0  0  0  0  0  0  0  0  0  0
   -9.2030  -12.7889   14.2159 C   0  0  0  0  0  0  0  0  0  0  0  0
   -8.9132  -12.0560   15.6236 C   0  0  0  0  0  0  0  0  0  0  0  0
   -8.9760  -12.3886   17.6771 C   0  0  0  0  0  0  0  0  0  0  0  0
   -8.2174  -13.3413   18.9784 C   0  0  0  0  0  0  0  0  0  0  0  0
   -7.2495  -12.7459   19.3802 O   0  0  0  0  0  0  0  0  0  0  0  0
   -8.6382  -15.0664   19.5832 N   0  0  0  0  0  0  0  0  0  0  0  0
   -7.7509  -16.1418   21.0140 C   0  0  0  0  0  0  0  0  0  0  0  0
   -6.8685  -17.7773   21.2066 C   0  0  0  0  0  0  0  0  0  0  0  0
   -6.3245  -18.3249   19.9935 N   0  0  0  0  0  0  0  0  0  0  0  0
   -6.2036  -19.6998   19.7588 C   0  0  0  0  0  0  0  0  0  0  0  0
   -4.9462  -20.2916   19.8101 C   0  0  0  0  0  0  0  0  0  0  0  0
   -4.7590  -21.5904   19.3275 C   0  0  0  0  0  0  0  0  0  0  0  0
   -5.8288  -22.2795   18.7669 C   0  0  0  0  0  0  0  0  0  0  0  0
   -7.0530  -21.6426   18.7350 C   0  0  0  0  0  0  0  0  0  0  0  0
   -7.2492  -20.3864   19.2102 N   0  0  0  0  0  0  0  0  0  0  0  0
   -6.6433  -17.6766   18.7483 C   0  0  0  0  0  0  0  0  0  0  0  0
   -7.8682  -16.3549   18.5014 C   0  0  0  0  0  0  0  0  0  0  0  0
   -9.1705  -11.8107   13.1185 N   0  0  0  0  0  0  0  0  0  0  0  0
   -9.5365  -11.9273   11.7951 C   0  0  0  0  0  0  0  0  0  0  0  0
   -9.9433  -12.9227   11.0613 N   0  0  0  0  0  0  0  0  0  0  0  0
  -10.2270  -12.4946    9.7599 C   0  0  0  0  0  0  0  0  0  0  0  0
  -10.5890  -13.2938    8.6577 C   0  0  0  0  0  0  0  0  0  0  0  0
  -10.8171  -12.7126    7.4011 C   0  0  0  0  0  0  0  0  0  0  0  0
  -10.6689  -11.3501    7.2195 C   0  0  0  0  0  0  0  0  0  0  0  0
  -10.3012  -10.5564    8.2963 C   0  0  0  0  0  0  0  0  0  0  0  0
  -10.1252  -11.1296    9.5546 C   0  0  0  0  0  0  0  0  0  0  0  0
   -9.8199  -10.4030   11.0514 S   0  0  0  0  0  0  0  0  0  0  0  0
  -10.0405  -11.9002   15.5264 H   0  0  0  0  0  0  0  0  0  0  0  0
   -8.4592  -11.1146   15.3119 H   0  0  0  0  0  0  0  0  0  0  0  0
   -9.9119  -12.0021   18.1113 H   0  0  0  0  0  0  0  0  0  0  0  0
   -7.9897  -11.9046   17.6733 H   0  0  0  0  0  0  0  0  0  0  0  0
   -6.7322  -15.9030   20.8404 H   0  0  0  0  0  0  0  0  0  0  0  0
   -7.9178  -16.1681   22.0512 H   0  0  0  0  0  0  0  0  0  0  0  0
   -7.4528  -18.4573   21.8106 H   0  0  0  0  0  0  0  0  0  0  0  0
   -6.0266  -17.5839   21.8696 H   0  0  0  0  0  0  0  0  0  0  0  0
   -4.0960  -19.7273   20.1632 H   0  0  0  0  0  0  0  0  0  0  0  0
   -3.7744  -22.0455   19.3682 H   0  0  0  0  0  0  0  0  0  0  0  0
   -5.7119  -23.2824   18.3754 H   0  0  0  0  0  0  0  0  0  0  0  0
   -7.9337  -22.1199   18.3175 H   0  0  0  0  0  0  0  0  0  0  0  0
   -5.6201  -17.3051   18.5557 H   0  0  0  0  0  0  0  0  0  0  0  0
   -7.0576  -18.3969   18.0720 H   0  0  0  0  0  0  0  0  0  0  0  0
   -7.6994  -15.9606   17.5069 H   0  0  0  0  0  0  0  0  0  0  0  0
   -7.2478  -16.4183   19.3092 H   0  0  0  0  0  0  0  0  0  0  0  0
   -8.9749  -10.8956   13.4951 H   0  0  0  0  0  0  0  0  0  0  0  0
  -10.6871  -14.3670    8.7919 H   0  0  0  0  0  0  0  0  0  0  0  0
  -11.0967  -13.3456    6.5621 H   0  0  0  0  0  0  0  0  0  0  0  0
  -10.8180  -10.9050    6.2379 H   0  0  0  0  0  0  0  0  0  0  0  0
  -10.1077   -9.5175    8.1455 H   0  0  0  0  0  0  0  0  0  0  0  0
  1  2  2  0
  2  3  1  0
  3  4  1  0
  4  5  1  0
  5  6  2  0
  5  7  1  0
  7  8  1  0
  8  9  1  0
  9 10  1  0
 10 11  1  0
 11 12  2  0
 12 13  1  0
 13 14  2  0
 14 15  1  0
 15 16  2  0
 10 17  1  0
 17 18  1  0
  2 19  1  0
 19 20  1  0
 20 21  2  0
 21 22  1  0
 22 23  2  0
 23 24  1  0
 24 25  2  0
 25 26  1  0
 26 27  2  0
 27 28  1  0
 18  7  1  0
 28 20  1  0
 16 11  1  0
 27 22  1  0
  3 29  1  0
  3 30  1  0
  4 31  1  0
  4 32  1  0
  8 33  1  0
  8 34  1  0
  9 35  1  0
  9 36  1  0
 12 37  1  0
 13 38  1  0
 14 39  1  0
 15 40  1  0
 17 41  1  0
 17 42  1  0
 18 43  1  0
 18 44  1  0
 19 45  1  0
 23 46  1  0
 24 47  1  0
 25 48  1  0
 26 49  1  0
M  END
>  <Energy>  (1122) 
650.16706944048724

>  <compound_id>  (1122) 
11039

>  <target_id>  (1122) 
1

>  <reference_id>  (1122) 
69

>  <inspiration_ids>  (1122) 
[69, 82]

>  <energy_score>  (1122) 
551.1753600398207

>  <distance_score>  (1122) 
12.888768111660546

>  <path>  (1122) 
/opt/xchem-fragalysis-2/maxwin/BulkDock/SCRATCH/511020/C11039-P69/C11039-P69.minimised.mol

>  <scratch_subdir>  (1122) 
/opt/xchem-fragalysis-2/maxwin/BulkDock/SCRATCH/511020/C11039-P69

>  <fragmenstein_runtime>  (1122) 
60.290549755096436

>  <fragmenstein_outcome>  (1122) 
too moved

>  <fragmenstein_mode>  (1122) 
expansion

>  <fragmenstein_error>  (1122) 


$$$$
C11039-P82
     RDKit          3D

 49 52  0  0  0  0  0  0  0  0999 V2000
   -8.1539   -9.5307   14.4740 O   0  0  0  0  0  0  0  0  0  0  0  0
   -7.0687  -10.0079   14.7412 C   0  0  0  0  0  0  0  0  0  0  0  0
   -7.0288  -11.0127   16.6926 C   0  0  0  0  0  0  0  0  0  0  0  0
   -7.9440  -12.7335   17.6953 C   0  0  0  0  0  0  0  0  0  0  0  0
   -8.2062  -14.0989   19.3253 C   0  0  0  0  0  0  0  0  0  0  0  0
   -8.2472  -13.4986   20.3063 O   0  0  0  0  0  0  0  0  0  0  0  0
   -8.1660  -16.0808   19.7571 N   0  0  0  0  0  0  0  0  0  0  0  0
   -8.0384  -17.0540   21.4589 C   0  0  0  0  0  0  0  0  0  0  0  0
   -6.6551  -17.7698   22.7188 C   0  0  0  0  0  0  0  0  0  0  0  0
   -6.2611  -19.1555   23.2214 N   0  0  0  0  0  0  0  0  0  0  0  0
   -5.0313  -19.6893   24.6534 C   0  0  0  0  0  0  0  0  0  0  0  0
   -5.1473  -20.0981   26.0943 C   0  0  0  0  0  0  0  0  0  0  0  0
   -4.4129  -21.0377   26.9212 C   0  0  0  0  0  0  0  0  0  0  0  0
   -3.5166  -21.8612   26.3339 C   0  0  0  0  0  0  0  0  0  0  0  0
   -3.4119  -21.6557   24.9963 C   0  0  0  0  0  0  0  0  0  0  0  0
   -4.1055  -20.6921   24.2768 N   0  0  0  0  0  0  0  0  0  0  0  0
   -6.4417  -18.9920   21.2659 C   0  0  0  0  0  0  0  0  0  0  0  0
   -6.6309  -17.3243   20.0686 C   0  0  0  0  0  0  0  0  0  0  0  0
   -5.5434   -9.7125   13.5912 N   0  0  0  0  0  0  0  0  0  0  0  0
   -5.3320   -8.6528   12.0941 C   0  0  0  0  0  0  0  0  0  0  0  0
   -6.0430   -7.6457   11.4322 N   0  0  0  0  0  0  0  0  0  0  0  0
   -5.6606   -6.4282   10.4478 C   0  0  0  0  0  0  0  0  0  0  0  0
   -6.6308   -5.4167    9.2616 C   0  0  0  0  0  0  0  0  0  0  0  0
   -6.2463   -4.2985    7.9180 C   0  0  0  0  0  0  0  0  0  0  0  0
   -4.6880   -3.9994    7.8524 C   0  0  0  0  0  0  0  0  0  0  0  0
   -3.8429   -5.0958    9.0542 C   0  0  0  0  0  0  0  0  0  0  0  0
   -4.2329   -6.2461   10.3469 C   0  0  0  0  0  0  0  0  0  0  0  0
   -3.7411   -8.2697   10.7948 S   0  0  0  0  0  0  0  0  0  0  0  0
   -5.9395  -11.0120   16.9683 H   0  0  0  0  0  0  0  0  0  0  0  0
   -7.1997  -10.2089   17.3809 H   0  0  0  0  0  0  0  0  0  0  0  0
   -7.6475  -13.5034   17.0018 H   0  0  0  0  0  0  0  0  0  0  0  0
   -8.9808  -12.4470   17.7365 H   0  0  0  0  0  0  0  0  0  0  0  0
   -8.1891  -16.6178   22.3712 H   0  0  0  0  0  0  0  0  0  0  0  0
   -7.5173  -16.1773   21.3659 H   0  0  0  0  0  0  0  0  0  0  0  0
   -5.6879  -17.5654   22.2787 H   0  0  0  0  0  0  0  0  0  0  0  0
   -6.7687  -17.2138   23.5845 H   0  0  0  0  0  0  0  0  0  0  0  0
   -5.8643  -19.6419   26.6998 H   0  0  0  0  0  0  0  0  0  0  0  0
   -4.6413  -21.1076   27.9784 H   0  0  0  0  0  0  0  0  0  0  0  0
   -2.9611  -22.6193   26.8629 H   0  0  0  0  0  0  0  0  0  0  0  0
   -2.7595  -22.2701   24.3817 H   0  0  0  0  0  0  0  0  0  0  0  0
   -5.7042  -19.6164   20.7537 H   0  0  0  0  0  0  0  0  0  0  0  0
   -7.4141  -19.4277   21.1397 H   0  0  0  0  0  0  0  0  0  0  0  0
   -5.8661  -16.8133   20.5525 H   0  0  0  0  0  0  0  0  0  0  0  0
   -6.4020  -17.7283   19.0775 H   0  0  0  0  0  0  0  0  0  0  0  0
   -4.7645  -10.2557   13.9280 H   0  0  0  0  0  0  0  0  0  0  0  0
   -7.6249   -5.1454    9.5625 H   0  0  0  0  0  0  0  0  0  0  0  0
   -7.0227   -3.7895    7.3613 H   0  0  0  0  0  0  0  0  0  0  0  0
   -4.1769   -3.3818    7.1479 H   0  0  0  0  0  0  0  0  0  0  0  0
   -3.2579   -5.6920    8.3942 H   0  0  0  0  0  0  0  0  0  0  0  0
  1  2  2  0
  2  3  1  0
  3  4  1  0
  4  5  1  0
  5  6  2  0
  5  7  1  0
  7  8  1  0
  8  9  1  0
  9 10  1  0
 10 11  1  0
 11 12  2  0
 12 13  1  0
 13 14  2  0
 14 15  1  0
 15 16  2  0
 10 17  1  0
 17 18  1  0
  2 19  1  0
 19 20  1  0
 20 21  2  0
 21 22  1  0
 22 23  2  0
 23 24  1  0
 24 25  2  0
 25 26  1  0
 26 27  2  0
 27 28  1  0
 18  7  1  0
 28 20  1  0
 16 11  1  0
 27 22  1  0
  3 29  1  0
  3 30  1  0
  4 31  1  0
  4 32  1  0
  8 33  1  0
  8 34  1  0
  9 35  1  0
  9 36  1  0
 12 37  1  0
 13 38  1  0
 14 39  1  0
 15 40  1  0
 17 41  1  0
 17 42  1  0
 18 43  1  0
 18 44  1  0
 19 45  1  0
 23 46  1  0
 24 47  1  0
 25 48  1  0
 26 49  1  0
M  END
>  <Energy>  (1123) 
2020.2036173560753

>  <compound_id>  (1123) 
11039

>  <target_id>  (1123) 
1

>  <reference_id>  (1123) 
82

>  <inspiration_ids>  (1123) 
[69, 82]

>  <energy_score>  (1123) 
1921.211907955419

>  <distance_score>  (1123) 
8.190807066237973

>  <path>  (1123) 
/opt/xchem-fragalysis-2/maxwin/BulkDock/SCRATCH/511020/C11039-P82/C11039-P82.minimised.mol

>  <scratch_subdir>  (1123) 
/opt/xchem-fragalysis-2/maxwin/BulkDock/SCRATCH/511020/C11039-P82

>  <fragmenstein_runtime>  (1123) 
28.500133752822876

>  <fragmenstein_outcome>  (1123) 
too moved

>  <fragmenstein_mode>  (1123) 
expansion

>  <fragmenstein_error>  (1123) 


$$$$
C11040-P69
     RDKit          3D

 40 43  0  0  0  0  0  0  0  0999 V2000
   -5.6740  -12.2351   18.5942 O   0  0  0  0  0  0  0  0  0  0  0  0
   -7.0846  -12.0594   18.3920 S   0  0  0  0  0  0  0  0  0  0  0  0
   -7.9447  -12.6461   17.4150 O   0  0  0  0  0  0  0  0  0  0  0  0
   -6.5076  -10.3163   16.7265 C   0  0  0  0  0  0  0  0  0  0  0  0
   -5.1490   -9.7931   16.5146 C   0  0  0  0  0  0  0  0  0  0  0  0
   -4.5499   -8.6465   15.8470 C   0  0  0  0  0  0  0  0  0  0  0  0
   -5.1660   -7.9797   14.8352 C   0  0  0  0  0  0  0  0  0  0  0  0
   -6.2134   -8.7564   14.4117 C   0  0  0  0  0  0  0  0  0  0  0  0
   -6.5025   -9.1291   12.7372 S   0  0  0  0  0  0  0  0  0  0  0  0
   -7.9628   -9.8785   13.1781 C   0  0  0  0  0  0  0  0  0  0  0  0
   -8.1705   -9.9995   14.4686 N   0  0  0  0  0  0  0  0  0  0  0  0
   -7.0002   -9.5934   15.2468 C   0  0  0  0  0  0  0  0  0  0  0  0
   -7.7760  -13.5093   20.1816 N   0  0  0  0  0  0  0  0  0  0  0  0
   -8.8925  -13.7868   19.4248 C   0  0  0  0  0  0  0  0  0  0  0  0
   -8.6441  -15.4943   18.6877 C   0  0  0  0  0  0  0  0  0  0  0  0
   -7.6893  -16.6472   18.3908 N   0  0  0  0  0  0  0  0  0  0  0  0
   -6.7200  -16.8574   19.7676 C   0  0  0  0  0  0  0  0  0  0  0  0
   -7.6113  -15.5971   20.9511 C   0  0  0  0  0  0  0  0  0  0  0  0
   -7.8727  -16.6600   22.6327 C   0  0  0  0  0  0  0  0  0  0  0  0
   -7.2054  -17.8840   22.4508 C   0  0  0  0  0  0  0  0  0  0  0  0
   -7.9711  -18.8776   23.0363 C   0  0  0  0  0  0  0  0  0  0  0  0
   -9.6223  -18.6180   23.8004 C   0  0  0  0  0  0  0  0  0  0  0  0
  -10.2854  -17.0734   24.3191 C   0  0  0  0  0  0  0  0  0  0  0  0
   -9.2822  -16.2901   23.8920 N   0  0  0  0  0  0  0  0  0  0  0  0
   -4.3293  -10.3648   16.9616 H   0  0  0  0  0  0  0  0  0  0  0  0
   -3.5008   -8.4296   16.0587 H   0  0  0  0  0  0  0  0  0  0  0  0
   -4.6218   -7.2932   14.1980 H   0  0  0  0  0  0  0  0  0  0  0  0
   -8.6716  -10.2385   12.4434 H   0  0  0  0  0  0  0  0  0  0  0  0
   -9.1116  -12.8697   18.8794 H   0  0  0  0  0  0  0  0  0  0  0  0
   -9.9284  -13.6940   19.6324 H   0  0  0  0  0  0  0  0  0  0  0  0
   -9.5108  -15.6368   19.3182 H   0  0  0  0  0  0  0  0  0  0  0  0
   -9.1875  -15.8354   17.8401 H   0  0  0  0  0  0  0  0  0  0  0  0
   -7.2554  -16.4894   17.4894 H   0  0  0  0  0  0  0  0  0  0  0  0
   -5.6588  -16.9104   19.5218 H   0  0  0  0  0  0  0  0  0  0  0  0
   -6.7853  -17.9251   20.0452 H   0  0  0  0  0  0  0  0  0  0  0  0
   -8.5586  -15.8051   20.6282 H   0  0  0  0  0  0  0  0  0  0  0  0
   -6.3243  -18.0855   21.8823 H   0  0  0  0  0  0  0  0  0  0  0  0
   -7.6576  -19.8814   22.7742 H   0  0  0  0  0  0  0  0  0  0  0  0
  -10.2369  -19.5582   23.8770 H   0  0  0  0  0  0  0  0  0  0  0  0
  -11.2354  -16.8016   24.7791 H   0  0  0  0  0  0  0  0  0  0  0  0
  1  2  2  0
  2  3  2  0
  2  4  1  0
  4  5  2  0
  5  6  1  0
  6  7  2  0
  7  8  1  0
  8  9  1  0
  9 10  1  0
 10 11  2  0
 11 12  1  0
  2 13  1  0
 13 14  1  0
 14 15  1  0
 15 16  1  0
 16 17  1  0
 17 18  1  0
 18 19  1  0
 19 20  2  0
 20 21  1  0
 21 22  2  0
 22 23  1  0
 23 24  2  0
 12  4  1  0
 18 13  1  0
 24 19  1  0
 12  8  2  0
  5 25  1  0
  6 26  1  0
  7 27  1  0
 10 28  1  0
 14 29  1  0
 14 30  1  0
 15 31  1  0
 15 32  1  0
 16 33  1  0
 17 34  1  0
 17 35  1  0
 18 36  1  0
 20 37  1  0
 21 38  1  0
 22 39  1  0
 23 40  1  0
M  END
>  <Energy>  (1124) 
1249.4951969120455

>  <compound_id>  (1124) 
11040

>  <target_id>  (1124) 
1

>  <reference_id>  (1124) 
69

>  <inspiration_ids>  (1124) 
[69, 82]

>  <energy_score>  (1124) 
1059.1018654372924

>  <distance_score>  (1124) 
12.710421561808081

>  <path>  (1124) 
/opt/xchem-fragalysis-2/maxwin/BulkDock/SCRATCH/511020/C11040-P69/C11040-P69.minimised.mol

>  <scratch_subdir>  (1124) 
/opt/xchem-fragalysis-2/maxwin/BulkDock/SCRATCH/511020/C11040-P69

>  <fragmenstein_runtime>  (1124) 
22.348536491394043

>  <fragmenstein_outcome>  (1124) 
too moved

>  <fragmenstein_mode>  (1124) 
expansion

>  <fragmenstein_error>  (1124) 


$$$$
C11040-P82
     RDKit          3D

 40 43  0  0  0  0  0  0  0  0999 V2000
   -8.2552  -12.0804   16.6799 O   0  0  0  0  0  0  0  0  0  0  0  0
   -7.3401  -11.8996   17.8099 S   0  0  0  0  0  0  0  0  0  0  0  0
   -7.7892  -11.2107   18.9439 O   0  0  0  0  0  0  0  0  0  0  0  0
   -6.3162  -10.1860   16.5466 C   0  0  0  0  0  0  0  0  0  0  0  0
   -6.2601   -8.7827   16.9737 C   0  0  0  0  0  0  0  0  0  0  0  0
   -5.3801   -7.7442   16.5526 C   0  0  0  0  0  0  0  0  0  0  0  0
   -4.7116   -7.8558   15.3666 C   0  0  0  0  0  0  0  0  0  0  0  0
   -5.4305   -8.7013   14.5471 C   0  0  0  0  0  0  0  0  0  0  0  0
   -5.4200   -8.6651   12.8156 S   0  0  0  0  0  0  0  0  0  0  0  0
   -6.8952   -9.5046   12.8256 C   0  0  0  0  0  0  0  0  0  0  0  0
   -7.3182   -9.8969   14.0048 N   0  0  0  0  0  0  0  0  0  0  0  0
   -6.3646   -9.6517   15.0615 C   0  0  0  0  0  0  0  0  0  0  0  0
   -7.8084  -14.0075   17.6855 N   0  0  0  0  0  0  0  0  0  0  0  0
   -6.8175  -14.4242   16.5977 C   0  0  0  0  0  0  0  0  0  0  0  0
   -6.3882  -15.7883   16.4351 C   0  0  0  0  0  0  0  0  0  0  0  0
   -7.6421  -16.3465   16.3138 N   0  0  0  0  0  0  0  0  0  0  0  0
   -8.2843  -16.7552   17.4306 C   0  0  0  0  0  0  0  0  0  0  0  0
   -8.1378  -15.8310   18.5398 C   0  0  0  0  0  0  0  0  0  0  0  0
   -6.8798  -17.0042   19.5973 C   0  0  0  0  0  0  0  0  0  0  0  0
   -6.0398  -17.9927   19.0507 C   0  0  0  0  0  0  0  0  0  0  0  0
   -5.8564  -19.1896   19.6850 C   0  0  0  0  0  0  0  0  0  0  0  0
   -6.4058  -19.3147   20.9246 C   0  0  0  0  0  0  0  0  0  0  0  0
   -6.9283  -18.2496   21.5715 C   0  0  0  0  0  0  0  0  0  0  0  0
   -7.1415  -17.0971   20.9390 N   0  0  0  0  0  0  0  0  0  0  0  0
   -7.0080   -8.3625   17.6584 H   0  0  0  0  0  0  0  0  0  0  0  0
   -5.3103   -6.8285   17.1368 H   0  0  0  0  0  0  0  0  0  0  0  0
   -4.0418   -7.0933   14.9905 H   0  0  0  0  0  0  0  0  0  0  0  0
   -7.4576   -9.7021   11.9215 H   0  0  0  0  0  0  0  0  0  0  0  0
   -7.2663  -14.3954   15.6421 H   0  0  0  0  0  0  0  0  0  0  0  0
   -5.9573  -13.8290   16.8815 H   0  0  0  0  0  0  0  0  0  0  0  0
   -5.9618  -16.0756   15.4913 H   0  0  0  0  0  0  0  0  0  0  0  0
   -5.4704  -16.0733   16.9906 H   0  0  0  0  0  0  0  0  0  0  0  0
   -8.0412  -16.1807   15.4085 H   0  0  0  0  0  0  0  0  0  0  0  0
   -9.2654  -16.4553   17.3945 H   0  0  0  0  0  0  0  0  0  0  0  0
   -8.1729  -17.8210   17.4671 H   0  0  0  0  0  0  0  0  0  0  0  0
   -8.9828  -15.6109   19.2019 H   0  0  0  0  0  0  0  0  0  0  0  0
   -5.3201  -17.7885   18.2794 H   0  0  0  0  0  0  0  0  0  0  0  0
   -5.2231  -19.9660   19.2730 H   0  0  0  0  0  0  0  0  0  0  0  0
   -6.2166  -20.1867   21.4933 H   0  0  0  0  0  0  0  0  0  0  0  0
   -7.1851  -18.3032   22.6090 H   0  0  0  0  0  0  0  0  0  0  0  0
  1  2  2  0
  2  3  2  0
  2  4  1  0
  4  5  2  0
  5  6  1  0
  6  7  2  0
  7  8  1  0
  8  9  1  0
  9 10  1  0
 10 11  2  0
 11 12  1  0
  2 13  1  0
 13 14  1  0
 14 15  1  0
 15 16  1  0
 16 17  1  0
 17 18  1  0
 18 19  1  0
 19 20  2  0
 20 21  1  0
 21 22  2  0
 22 23  1  0
 23 24  2  0
 12  4  1  0
 18 13  1  0
 24 19  1  0
 12  8  2  0
  5 25  1  0
  6 26  1  0
  7 27  1  0
 10 28  1  0
 14 29  1  0
 14 30  1  0
 15 31  1  0
 15 32  1  0
 16 33  1  0
 17 34  1  0
 17 35  1  0
 18 36  1  0
 20 37  1  0
 21 38  1  0
 22 39  1  0
 23 40  1  0
M  END
>  <Energy>  (1125) 
681.77572283008124

>  <compound_id>  (1125) 
11040

>  <target_id>  (1125) 
1

>  <reference_id>  (1125) 
82

>  <inspiration_ids>  (1125) 
[69, 82]

>  <energy_score>  (1125) 
491.382391355334

>  <distance_score>  (1125) 
13.532632862902984

>  <path>  (1125) 
/opt/xchem-fragalysis-2/maxwin/BulkDock/SCRATCH/511020/C11040-P82/C11040-P82.minimised.mol

>  <scratch_subdir>  (1125) 
/opt/xchem-fragalysis-2/maxwin/BulkDock/SCRATCH/511020/C11040-P82

>  <fragmenstein_runtime>  (1125) 
24.449442625045776

>  <fragmenstein_outcome>  (1125) 
too moved

>  <fragmenstein_mode>  (1125) 
expansion

>  <fragmenstein_error>  (1125) 


$$$$
C11041-P69
     RDKit          3D

 44 47  0  0  0  0  0  0  0  0999 V2000
   -8.3409  -11.9492   13.0210 O   0  0  0  0  0  0  0  0  0  0  0  0
   -8.2106  -11.2428   14.0074 C   0  0  0  0  0  0  0  0  0  0  0  0
   -8.6466  -12.1284   15.6420 C   0  0  0  0  0  0  0  0  0  0  0  0
   -7.6924  -13.2598   17.0048 N   0  0  0  0  0  0  0  0  0  0  0  0
   -8.2215  -13.2932   18.6917 C   0  0  0  0  0  0  0  0  0  0  0  0
   -8.6737  -15.1337   19.2274 C   0  0  0  0  0  0  0  0  0  0  0  0
   -7.6965  -16.4957   18.6393 N   0  0  0  0  0  0  0  0  0  0  0  0
   -6.6266  -17.2129   19.5144 C   0  0  0  0  0  0  0  0  0  0  0  0
   -5.9480  -18.3747   19.3089 C   0  0  0  0  0  0  0  0  0  0  0  0
   -5.8018  -19.2276   20.4055 C   0  0  0  0  0  0  0  0  0  0  0  0
   -6.4157  -18.9612   21.6158 C   0  0  0  0  0  0  0  0  0  0  0  0
   -6.7666  -17.7048   21.7944 C   0  0  0  0  0  0  0  0  0  0  0  0
   -6.6623  -16.8283   20.8067 N   0  0  0  0  0  0  0  0  0  0  0  0
   -7.7943  -16.3550   17.2694 C   0  0  0  0  0  0  0  0  0  0  0  0
   -7.0119  -15.0054   16.6601 C   0  0  0  0  0  0  0  0  0  0  0  0
   -7.6119   -9.7241   14.1493 N   0  0  0  0  0  0  0  0  0  0  0  0
   -6.8572   -8.6933   12.9784 C   0  0  0  0  0  0  0  0  0  0  0  0
   -6.4466   -7.4559   12.6827 N   0  0  0  0  0  0  0  0  0  0  0  0
   -5.1996   -7.3021   11.9490 C   0  0  0  0  0  0  0  0  0  0  0  0
   -4.8662   -6.4952   10.9258 C   0  0  0  0  0  0  0  0  0  0  0  0
   -3.5703   -6.2904   10.4380 C   0  0  0  0  0  0  0  0  0  0  0  0
   -2.4927   -6.9213   10.9897 C   0  0  0  0  0  0  0  0  0  0  0  0
   -2.7830   -7.9077   11.8857 C   0  0  0  0  0  0  0  0  0  0  0  0
   -4.1429   -8.0910   12.1948 C   0  0  0  0  0  0  0  0  0  0  0  0
   -4.9196   -9.4210   12.6583 S   0  0  0  0  0  0  0  0  0  0  0  0
   -8.1324  -11.4445   16.2061 H   0  0  0  0  0  0  0  0  0  0  0  0
   -9.7419  -12.1695   15.4641 H   0  0  0  0  0  0  0  0  0  0  0  0
   -9.1171  -12.6578   18.7703 H   0  0  0  0  0  0  0  0  0  0  0  0
   -7.4769  -12.7914   19.3113 H   0  0  0  0  0  0  0  0  0  0  0  0
   -9.7007  -15.3230   19.1195 H   0  0  0  0  0  0  0  0  0  0  0  0
   -8.5378  -15.3204   20.2700 H   0  0  0  0  0  0  0  0  0  0  0  0
   -5.4483  -18.6465   18.4067 H   0  0  0  0  0  0  0  0  0  0  0  0
   -5.1700  -20.0980   20.3206 H   0  0  0  0  0  0  0  0  0  0  0  0
   -6.4389  -19.5449   22.5164 H   0  0  0  0  0  0  0  0  0  0  0  0
   -7.1025  -17.3356   22.7359 H   0  0  0  0  0  0  0  0  0  0  0  0
   -8.8111  -16.1566   17.3109 H   0  0  0  0  0  0  0  0  0  0  0  0
   -7.9356  -17.2826   16.7768 H   0  0  0  0  0  0  0  0  0  0  0  0
   -7.2610  -15.1812   15.6038 H   0  0  0  0  0  0  0  0  0  0  0  0
   -6.0510  -15.3009   16.9794 H   0  0  0  0  0  0  0  0  0  0  0  0
   -7.7218   -9.4102   15.0762 H   0  0  0  0  0  0  0  0  0  0  0  0
   -5.7156   -6.2320   10.3391 H   0  0  0  0  0  0  0  0  0  0  0  0
   -3.4663   -5.6870    9.5458 H   0  0  0  0  0  0  0  0  0  0  0  0
   -1.4890   -6.7959   10.5981 H   0  0  0  0  0  0  0  0  0  0  0  0
   -2.0277   -8.6226   12.1958 H   0  0  0  0  0  0  0  0  0  0  0  0
  1  2  2  0
  2  3  1  0
  3  4  1  0
  4  5  1  0
  5  6  1  0
  6  7  1  0
  7  8  1  0
  8  9  2  0
  9 10  1  0
 10 11  2  0
 11 12  1  0
 12 13  2  0
  7 14  1  0
 14 15  1  0
  2 16  1  0
 16 17  1  0
 17 18  2  0
 18 19  1  0
 19 20  2  0
 20 21  1  0
 21 22  2  0
 22 23  1  0
 23 24  2  0
 24 25  1  0
 15  4  1  0
 25 17  1  0
 13  8  1  0
 24 19  1  0
  3 26  1  0
  3 27  1  0
  5 28  1  0
  5 29  1  0
  6 30  1  0
  6 31  1  0
  9 32  1  0
 10 33  1  0
 11 34  1  0
 12 35  1  0
 14 36  1  0
 14 37  1  0
 15 38  1  0
 15 39  1  0
 16 40  1  0
 20 41  1  0
 21 42  1  0
 22 43  1  0
 23 44  1  0
M  END
>  <Energy>  (1126) 
662.51114154559241

>  <compound_id>  (1126) 
11041

>  <target_id>  (1126) 
1

>  <reference_id>  (1126) 
69

>  <inspiration_ids>  (1126) 
[69, 82]

>  <energy_score>  (1126) 
501.9289743032805

>  <distance_score>  (1126) 
11.506822709218183

>  <path>  (1126) 
/opt/xchem-fragalysis-2/maxwin/BulkDock/SCRATCH/511020/C11041-P69/C11041-P69.minimised.mol

>  <scratch_subdir>  (1126) 
/opt/xchem-fragalysis-2/maxwin/BulkDock/SCRATCH/511020/C11041-P69

>  <fragmenstein_runtime>  (1126) 
51.62172245979309

>  <fragmenstein_outcome>  (1126) 
too moved

>  <fragmenstein_mode>  (1126) 
expansion

>  <fragmenstein_error>  (1126) 


$$$$
C11041-P82
     RDKit          3D

 44 47  0  0  0  0  0  0  0  0999 V2000
   -6.8426   -9.0053   16.5633 O   0  0  0  0  0  0  0  0  0  0  0  0
   -6.4664  -10.1024   16.1510 C   0  0  0  0  0  0  0  0  0  0  0  0
   -6.8184  -11.4633   17.5393 C   0  0  0  0  0  0  0  0  0  0  0  0
   -7.7289  -13.0110   17.5694 N   0  0  0  0  0  0  0  0  0  0  0  0
   -8.2969  -13.5611   18.9402 C   0  0  0  0  0  0  0  0  0  0  0  0
   -8.7331  -15.4432   19.0084 C   0  0  0  0  0  0  0  0  0  0  0  0
   -7.8316  -16.6521   18.1007 N   0  0  0  0  0  0  0  0  0  0  0  0
   -6.6762  -17.5776   19.0169 C   0  0  0  0  0  0  0  0  0  0  0  0
   -6.7329  -17.7130   20.4271 C   0  0  0  0  0  0  0  0  0  0  0  0
   -6.4343  -18.9312   20.9546 C   0  0  0  0  0  0  0  0  0  0  0  0
   -5.5815  -19.7062   20.2172 C   0  0  0  0  0  0  0  0  0  0  0  0
   -5.0304  -19.1666   19.1054 C   0  0  0  0  0  0  0  0  0  0  0  0
   -5.5862  -18.1311   18.5043 N   0  0  0  0  0  0  0  0  0  0  0  0
   -7.1630  -15.9676   16.7394 C   0  0  0  0  0  0  0  0  0  0  0  0
   -6.9919  -14.3752   16.7415 C   0  0  0  0  0  0  0  0  0  0  0  0
   -5.7205  -10.3432   14.3983 N   0  0  0  0  0  0  0  0  0  0  0  0
   -5.3366   -9.2574   13.2188 C   0  0  0  0  0  0  0  0  0  0  0  0
   -5.9899   -8.1623   12.9258 N   0  0  0  0  0  0  0  0  0  0  0  0
   -5.2297   -7.6460   11.9674 C   0  0  0  0  0  0  0  0  0  0  0  0
   -5.6368   -7.5621   10.7132 C   0  0  0  0  0  0  0  0  0  0  0  0
   -5.1604   -6.3550   10.6300 C   0  0  0  0  0  0  0  0  0  0  0  0
   -3.7745   -6.1165   10.6499 C   0  0  0  0  0  0  0  0  0  0  0  0
   -2.9674   -6.9107   11.4150 C   0  0  0  0  0  0  0  0  0  0  0  0
   -3.8289   -7.8139   11.9775 C   0  0  0  0  0  0  0  0  0  0  0  0
   -4.0647   -9.4536   11.5784 S   0  0  0  0  0  0  0  0  0  0  0  0
   -7.3282  -11.0641   18.4001 H   0  0  0  0  0  0  0  0  0  0  0  0
   -7.6901  -11.4926   16.9320 H   0  0  0  0  0  0  0  0  0  0  0  0
   -9.2192  -13.0297   19.1421 H   0  0  0  0  0  0  0  0  0  0  0  0
   -7.5618  -13.3128   19.6848 H   0  0  0  0  0  0  0  0  0  0  0  0
   -9.7642  -15.5773   18.8585 H   0  0  0  0  0  0  0  0  0  0  0  0
   -8.6193  -15.7565   20.0301 H   0  0  0  0  0  0  0  0  0  0  0  0
   -7.2987  -17.0697   21.0841 H   0  0  0  0  0  0  0  0  0  0  0  0
   -6.7672  -19.1954   21.9496 H   0  0  0  0  0  0  0  0  0  0  0  0
   -5.1651  -20.6304   20.5776 H   0  0  0  0  0  0  0  0  0  0  0  0
   -4.1593  -19.5867   18.6303 H   0  0  0  0  0  0  0  0  0  0  0  0
   -7.8224  -16.2711   15.9415 H   0  0  0  0  0  0  0  0  0  0  0  0
   -6.0957  -16.1164   16.5693 H   0  0  0  0  0  0  0  0  0  0  0  0
   -7.2520  -14.3946   15.7138 H   0  0  0  0  0  0  0  0  0  0  0  0
   -7.6793  -14.6929   17.4423 H   0  0  0  0  0  0  0  0  0  0  0  0
   -5.4261  -11.2238   14.3039 H   0  0  0  0  0  0  0  0  0  0  0  0
   -6.5022   -7.8837   10.1585 H   0  0  0  0  0  0  0  0  0  0  0  0
   -5.9285   -5.9579    9.9352 H   0  0  0  0  0  0  0  0  0  0  0  0
   -3.4022   -5.4722    9.8698 H   0  0  0  0  0  0  0  0  0  0  0  0
   -1.9127   -7.0600   11.2437 H   0  0  0  0  0  0  0  0  0  0  0  0
  1  2  2  0
  2  3  1  0
  3  4  1  0
  4  5  1  0
  5  6  1  0
  6  7  1  0
  7  8  1  0
  8  9  2  0
  9 10  1  0
 10 11  2  0
 11 12  1  0
 12 13  2  0
  7 14  1  0
 14 15  1  0
  2 16  1  0
 16 17  1  0
 17 18  2  0
 18 19  1  0
 19 20  2  0
 20 21  1  0
 21 22  2  0
 22 23  1  0
 23 24  2  0
 24 25  1  0
 15  4  1  0
 25 17  1  0
 13  8  1  0
 24 19  1  0
  3 26  1  0
  3 27  1  0
  5 28  1  0
  5 29  1  0
  6 30  1  0
  6 31  1  0
  9 32  1  0
 10 33  1  0
 11 34  1  0
 12 35  1  0
 14 36  1  0
 14 37  1  0
 15 38  1  0
 15 39  1  0
 16 40  1  0
 20 41  1  0
 21 42  1  0
 22 43  1  0
 23 44  1  0
M  END
>  <Energy>  (1127) 
821.4952432588567

>  <compound_id>  (1127) 
11041

>  <target_id>  (1127) 
1

>  <reference_id>  (1127) 
82

>  <inspiration_ids>  (1127) 
[69, 82]

>  <energy_score>  (1127) 
660.9130760165506

>  <distance_score>  (1127) 
11.309429371199824

>  <path>  (1127) 
/opt/xchem-fragalysis-2/maxwin/BulkDock/SCRATCH/511020/C11041-P82/C11041-P82.minimised.mol

>  <scratch_subdir>  (1127) 
/opt/xchem-fragalysis-2/maxwin/BulkDock/SCRATCH/511020/C11041-P82

>  <fragmenstein_runtime>  (1127) 
31.429019689559937

>  <fragmenstein_outcome>  (1127) 
too moved

>  <fragmenstein_mode>  (1127) 
expansion

>  <fragmenstein_error>  (1127) 


$$$$
C11042-P69
     RDKit          3D

 51 54  0  0  0  0  0  0  0  0999 V2000
   -2.6163  -11.4572   18.1433 C   0  0  0  0  0  0  0  0  0  0  0  0
   -3.4932  -10.8693   19.1869 C   0  0  0  0  0  0  0  0  0  0  0  0
   -4.7110  -11.9229   19.9396 N   0  0  0  0  0  0  0  0  0  0  0  0
   -6.4232  -12.5392   19.3365 C   0  0  0  0  0  0  0  0  0  0  0  0
   -7.0521  -12.2490   18.3425 O   0  0  0  0  0  0  0  0  0  0  0  0
   -6.9277  -13.9342   20.5736 N   0  0  0  0  0  0  0  0  0  0  0  0
   -6.4126  -16.0287   20.6087 C   0  0  0  0  0  0  0  0  0  0  0  0
   -6.4753  -17.9711   20.8422 C   0  0  0  0  0  0  0  0  0  0  0  0
   -7.0840  -18.3194   22.1073 N   0  0  0  0  0  0  0  0  0  0  0  0
   -7.7734  -19.8134   22.5844 C   0  0  0  0  0  0  0  0  0  0  0  0
   -7.1612  -20.8397   23.2538 C   0  0  0  0  0  0  0  0  0  0  0  0
   -7.8220  -22.5025   23.6146 C   0  0  0  0  0  0  0  0  0  0  0  0
   -9.1774  -22.9509   23.3229 C   0  0  0  0  0  0  0  0  0  0  0  0
   -9.8925  -21.8854   22.8544 C   0  0  0  0  0  0  0  0  0  0  0  0
   -9.2507  -20.6253   22.5795 N   0  0  0  0  0  0  0  0  0  0  0  0
   -7.8663  -16.7985   21.8751 C   0  0  0  0  0  0  0  0  0  0  0  0
   -8.3683  -15.2738   20.5251 C   0  0  0  0  0  0  0  0  0  0  0  0
   -2.5658   -9.3237   19.4627 C   0  0  0  0  0  0  0  0  0  0  0  0
   -1.9250   -9.2677   20.4869 O   0  0  0  0  0  0  0  0  0  0  0  0
   -2.8083   -8.2832   18.4041 N   0  0  0  0  0  0  0  0  0  0  0  0
   -2.4407   -6.9245   18.3445 C   0  0  0  0  0  0  0  0  0  0  0  0
   -1.3788   -6.5040   17.6756 N   0  0  0  0  0  0  0  0  0  0  0  0
   -1.6140   -5.2898   16.9923 C   0  0  0  0  0  0  0  0  0  0  0  0
   -0.7407   -4.6301   16.0979 C   0  0  0  0  0  0  0  0  0  0  0  0
   -1.1235   -3.4241   15.4915 C   0  0  0  0  0  0  0  0  0  0  0  0
   -2.3595   -2.8597   15.7735 C   0  0  0  0  0  0  0  0  0  0  0  0
   -3.2773   -3.5298   16.5853 C   0  0  0  0  0  0  0  0  0  0  0  0
   -2.8804   -4.7476   17.1725 C   0  0  0  0  0  0  0  0  0  0  0  0
   -3.7814   -5.8363   18.1332 S   0  0  0  0  0  0  0  0  0  0  0  0
   -1.5747  -11.2161   18.3340 H   0  0  0  0  0  0  0  0  0  0  0  0
   -2.6024  -12.5246   17.9790 H   0  0  0  0  0  0  0  0  0  0  0  0
   -2.9095  -10.8667   17.2960 H   0  0  0  0  0  0  0  0  0  0  0  0
   -2.8883  -11.2602   20.0347 H   0  0  0  0  0  0  0  0  0  0  0  0
   -4.4873  -12.2708   20.8230 H   0  0  0  0  0  0  0  0  0  0  0  0
   -5.5258  -16.3166   21.2316 H   0  0  0  0  0  0  0  0  0  0  0  0
   -6.2818  -16.5521   19.6418 H   0  0  0  0  0  0  0  0  0  0  0  0
   -6.8839  -18.4838   19.9712 H   0  0  0  0  0  0  0  0  0  0  0  0
   -5.4434  -18.3080   20.7864 H   0  0  0  0  0  0  0  0  0  0  0  0
   -6.0250  -20.8093   23.3003 H   0  0  0  0  0  0  0  0  0  0  0  0
   -7.0958  -23.2765   23.9197 H   0  0  0  0  0  0  0  0  0  0  0  0
   -9.5537  -23.9421   23.5020 H   0  0  0  0  0  0  0  0  0  0  0  0
  -10.9512  -21.8998   22.6295 H   0  0  0  0  0  0  0  0  0  0  0  0
   -7.6074  -16.4947   22.8435 H   0  0  0  0  0  0  0  0  0  0  0  0
   -8.5749  -17.5186   21.7687 H   0  0  0  0  0  0  0  0  0  0  0  0
   -9.0370  -14.9300   19.6694 H   0  0  0  0  0  0  0  0  0  0  0  0
   -8.2547  -15.8519   19.5412 H   0  0  0  0  0  0  0  0  0  0  0  0
   -3.4582   -8.6435   17.7287 H   0  0  0  0  0  0  0  0  0  0  0  0
    0.2400   -5.0558   15.9037 H   0  0  0  0  0  0  0  0  0  0  0  0
   -0.4247   -2.9095   14.8355 H   0  0  0  0  0  0  0  0  0  0  0  0
   -2.6082   -1.8811   15.3701 H   0  0  0  0  0  0  0  0  0  0  0  0
   -4.2620   -3.1118   16.7760 H   0  0  0  0  0  0  0  0  0  0  0  0
  1  2  1  0
  2  3  1  0
  3  4  1  0
  4  5  2  0
  4  6  1  0
  6  7  1  0
  7  8  1  0
  8  9  1  0
  9 10  1  0
 10 11  2  0
 11 12  1  0
 12 13  2  0
 13 14  1  0
 14 15  2  0
  9 16  1  0
 16 17  1  0
  2 18  1  0
 18 19  2  0
 18 20  1  0
 20 21  1  0
 21 22  2  0
 22 23  1  0
 23 24  2  0
 24 25  1  0
 25 26  2  0
 26 27  1  0
 27 28  2  0
 28 29  1  0
 17  6  1  0
 29 21  1  0
 15 10  1  0
 28 23  1  0
  1 30  1  0
  1 31  1  0
  1 32  1  0
  2 33  1  0
  3 34  1  0
  7 35  1  0
  7 36  1  0
  8 37  1  0
  8 38  1  0
 11 39  1  0
 12 40  1  0
 13 41  1  0
 14 42  1  0
 16 43  1  0
 16 44  1  0
 17 45  1  0
 17 46  1  0
 20 47  1  0
 24 48  1  0
 25 49  1  0
 26 50  1  0
 27 51  1  0
M  END
>  <Energy>  (1128) 
1192.4853676335285

>  <compound_id>  (1128) 
11042

>  <target_id>  (1128) 
1

>  <reference_id>  (1128) 
69

>  <inspiration_ids>  (1128) 
[69, 82]

>  <energy_score>  (1128) 
1123.4528301843693

>  <distance_score>  (1128) 
10.829264446151333

>  <path>  (1128) 
/opt/xchem-fragalysis-2/maxwin/BulkDock/SCRATCH/511020/C11042-P69/C11042-P69.minimised.mol

>  <scratch_subdir>  (1128) 
/opt/xchem-fragalysis-2/maxwin/BulkDock/SCRATCH/511020/C11042-P69

>  <fragmenstein_runtime>  (1128) 
49.788174867630005

>  <fragmenstein_outcome>  (1128) 
too moved

>  <fragmenstein_mode>  (1128) 
expansion

>  <fragmenstein_error>  (1128) 


$$$$
C11042-P82
     RDKit          3D

 51 54  0  0  0  0  0  0  0  0999 V2000
   -9.0284  -13.4883   13.9917 C   0  0  0  0  0  0  0  0  0  0  0  0
   -7.5021  -14.2182   14.0277 C   0  0  0  0  0  0  0  0  0  0  0  0
   -7.6047  -15.6795   15.1609 N   0  0  0  0  0  0  0  0  0  0  0  0
   -6.9018  -15.9859   16.6813 C   0  0  0  0  0  0  0  0  0  0  0  0
   -6.1921  -15.2001   16.9937 O   0  0  0  0  0  0  0  0  0  0  0  0
   -7.2141  -17.2879   18.0508 N   0  0  0  0  0  0  0  0  0  0  0  0
   -6.3538  -18.8357   18.4008 C   0  0  0  0  0  0  0  0  0  0  0  0
   -5.5895  -19.5055   19.9571 C   0  0  0  0  0  0  0  0  0  0  0  0
   -6.2360  -19.1571   21.2620 N   0  0  0  0  0  0  0  0  0  0  0  0
   -6.4502  -19.7810   22.5734 C   0  0  0  0  0  0  0  0  0  0  0  0
   -5.9576  -19.0252   23.6661 C   0  0  0  0  0  0  0  0  0  0  0  0
   -4.8936  -19.9458   24.9085 C   0  0  0  0  0  0  0  0  0  0  0  0
   -4.3246  -21.2575   24.7899 C   0  0  0  0  0  0  0  0  0  0  0  0
   -4.9003  -21.8604   23.7028 C   0  0  0  0  0  0  0  0  0  0  0  0
   -5.9642  -21.1658   22.8480 N   0  0  0  0  0  0  0  0  0  0  0  0
   -7.2090  -18.3100   20.8943 C   0  0  0  0  0  0  0  0  0  0  0  0
   -6.6598  -17.3634   19.7362 C   0  0  0  0  0  0  0  0  0  0  0  0
   -6.6920  -12.5115   13.0736 C   0  0  0  0  0  0  0  0  0  0  0  0
   -6.8361  -12.6152   11.9285 O   0  0  0  0  0  0  0  0  0  0  0  0
   -5.6653  -10.9608   13.6573 N   0  0  0  0  0  0  0  0  0  0  0  0
   -4.8254   -9.7638   12.8111 C   0  0  0  0  0  0  0  0  0  0  0  0
   -5.2490   -8.6005   12.4887 N   0  0  0  0  0  0  0  0  0  0  0  0
   -4.9924   -8.3317   11.1639 C   0  0  0  0  0  0  0  0  0  0  0  0
   -5.8437   -7.7269   10.4099 C   0  0  0  0  0  0  0  0  0  0  0  0
   -5.3568   -6.4780   10.6213 C   0  0  0  0  0  0  0  0  0  0  0  0
   -3.9430   -6.1347   10.5140 C   0  0  0  0  0  0  0  0  0  0  0  0
   -3.0011   -7.1115   10.4526 C   0  0  0  0  0  0  0  0  0  0  0  0
   -3.6718   -8.2103   10.8307 C   0  0  0  0  0  0  0  0  0  0  0  0
   -3.6470   -9.7881   11.0177 S   0  0  0  0  0  0  0  0  0  0  0  0
   -9.1595  -13.0890   12.9754 H   0  0  0  0  0  0  0  0  0  0  0  0
   -9.1145  -12.6038   14.6251 H   0  0  0  0  0  0  0  0  0  0  0  0
   -9.8287  -14.2048   14.1360 H   0  0  0  0  0  0  0  0  0  0  0  0
   -7.1259  -14.3789   15.0980 H   0  0  0  0  0  0  0  0  0  0  0  0
   -8.1466  -16.4621   14.9243 H   0  0  0  0  0  0  0  0  0  0  0  0
   -7.1680  -19.5538   18.3243 H   0  0  0  0  0  0  0  0  0  0  0  0
   -5.3948  -18.8419   17.8654 H   0  0  0  0  0  0  0  0  0  0  0  0
   -5.4487  -20.5527   19.9786 H   0  0  0  0  0  0  0  0  0  0  0  0
   -4.5675  -19.1247   19.8651 H   0  0  0  0  0  0  0  0  0  0  0  0
   -6.3166  -18.0214   23.6715 H   0  0  0  0  0  0  0  0  0  0  0  0
   -5.1869  -19.8183   25.9769 H   0  0  0  0  0  0  0  0  0  0  0  0
   -3.7732  -21.7688   25.5600 H   0  0  0  0  0  0  0  0  0  0  0  0
   -4.7736  -22.9058   23.4410 H   0  0  0  0  0  0  0  0  0  0  0  0
   -7.8021  -19.0777   20.4438 H   0  0  0  0  0  0  0  0  0  0  0  0
   -7.6602  -17.7635   21.7231 H   0  0  0  0  0  0  0  0  0  0  0  0
   -6.9527  -16.5024   20.2815 H   0  0  0  0  0  0  0  0  0  0  0  0
   -5.5766  -17.3556   19.6808 H   0  0  0  0  0  0  0  0  0  0  0  0
   -5.6718  -10.9233   14.6192 H   0  0  0  0  0  0  0  0  0  0  0  0
   -6.8172   -8.0300   10.1069 H   0  0  0  0  0  0  0  0  0  0  0  0
   -6.1292   -5.9178   10.0655 H   0  0  0  0  0  0  0  0  0  0  0  0
   -3.6715   -5.2158   10.0200 H   0  0  0  0  0  0  0  0  0  0  0  0
   -1.9689   -7.0442   10.1682 H   0  0  0  0  0  0  0  0  0  0  0  0
  1  2  1  0
  2  3  1  0
  3  4  1  0
  4  5  2  0
  4  6  1  0
  6  7  1  0
  7  8  1  0
  8  9  1  0
  9 10  1  0
 10 11  2  0
 11 12  1  0
 12 13  2  0
 13 14  1  0
 14 15  2  0
  9 16  1  0
 16 17  1  0
  2 18  1  0
 18 19  2  0
 18 20  1  0
 20 21  1  0
 21 22  2  0
 22 23  1  0
 23 24  2  0
 24 25  1  0
 25 26  2  0
 26 27  1  0
 27 28  2  0
 28 29  1  0
 17  6  1  0
 29 21  1  0
 15 10  1  0
 28 23  1  0
  1 30  1  0
  1 31  1  0
  1 32  1  0
  2 33  1  0
  3 34  1  0
  7 35  1  0
  7 36  1  0
  8 37  1  0
  8 38  1  0
 11 39  1  0
 12 40  1  0
 13 41  1  0
 14 42  1  0
 16 43  1  0
 16 44  1  0
 17 45  1  0
 17 46  1  0
 20 47  1  0
 24 48  1  0
 25 49  1  0
 26 50  1  0
 27 51  1  0
M  END
>  <Energy>  (1129) 
1187.3530080216019

>  <compound_id>  (1129) 
11042

>  <target_id>  (1129) 
1

>  <reference_id>  (1129) 
82

>  <inspiration_ids>  (1129) 
[69, 82]

>  <energy_score>  (1129) 
1118.3204705724552

>  <distance_score>  (1129) 
9.476988266951375

>  <path>  (1129) 
/opt/xchem-fragalysis-2/maxwin/BulkDock/SCRATCH/511020/C11042-P82/C11042-P82.minimised.mol

>  <scratch_subdir>  (1129) 
/opt/xchem-fragalysis-2/maxwin/BulkDock/SCRATCH/511020/C11042-P82

>  <fragmenstein_runtime>  (1129) 
43.24766135215759

>  <fragmenstein_outcome>  (1129) 
too moved

>  <fragmenstein_mode>  (1129) 
expansion

>  <fragmenstein_error>  (1129) 


$$$$
C11043-P69
     RDKit          3D

 52 55  0  0  0  0  0  0  0  0999 V2000
   -5.2173  -10.9253   13.5933 O   0  0  0  0  0  0  0  0  0  0  0  0
   -5.9829  -10.0846   13.9530 C   0  0  0  0  0  0  0  0  0  0  0  0
   -6.6543  -10.1367   15.9785 C   0  0  0  0  0  0  0  0  0  0  0  0
   -7.3222  -11.4279   17.5631 C   0  0  0  0  0  0  0  0  0  0  0  0
   -8.1801  -13.0140   18.4520 C   0  0  0  0  0  0  0  0  0  0  0  0
   -8.4308  -13.9707   20.1853 C   0  0  0  0  0  0  0  0  0  0  0  0
   -8.6440  -13.1679   21.0211 O   0  0  0  0  0  0  0  0  0  0  0  0
   -8.2158  -15.8511   20.8466 N   0  0  0  0  0  0  0  0  0  0  0  0
   -8.1562  -16.6010   22.7467 C   0  0  0  0  0  0  0  0  0  0  0  0
   -9.7276  -16.7804   24.3027 C   0  0  0  0  0  0  0  0  0  0  0  0
   -9.3488  -18.5717   23.4247 N   0  0  0  0  0  0  0  0  0  0  0  0
  -10.2709  -20.1417   23.3364 C   0  0  0  0  0  0  0  0  0  0  0  0
  -11.4317  -20.5640   24.0000 C   0  0  0  0  0  0  0  0  0  0  0  0
  -12.0698  -21.8387   23.8566 C   0  0  0  0  0  0  0  0  0  0  0  0
  -11.5682  -22.7631   22.9973 C   0  0  0  0  0  0  0  0  0  0  0  0
  -10.4505  -22.3490   22.3455 C   0  0  0  0  0  0  0  0  0  0  0  0
   -9.8234  -21.1403   22.5352 N   0  0  0  0  0  0  0  0  0  0  0  0
   -7.6328  -18.5074   22.3261 C   0  0  0  0  0  0  0  0  0  0  0  0
   -6.8288  -16.8208   21.3660 C   0  0  0  0  0  0  0  0  0  0  0  0
   -6.4895   -8.6878   12.9127 N   0  0  0  0  0  0  0  0  0  0  0  0
   -5.9361   -8.1472   11.2083 C   0  0  0  0  0  0  0  0  0  0  0  0
   -6.6923   -7.8615    9.8643 N   0  0  0  0  0  0  0  0  0  0  0  0
   -7.1287   -6.2031    9.1524 C   0  0  0  0  0  0  0  0  0  0  0  0
   -8.1056   -5.4447    7.9042 C   0  0  0  0  0  0  0  0  0  0  0  0
   -8.1470   -4.2920    7.0907 C   0  0  0  0  0  0  0  0  0  0  0  0
   -7.0028   -3.6273    7.0119 C   0  0  0  0  0  0  0  0  0  0  0  0
   -6.0748   -4.1581    7.8715 C   0  0  0  0  0  0  0  0  0  0  0  0
   -6.1865   -5.4060    9.2194 C   0  0  0  0  0  0  0  0  0  0  0  0
   -4.9089   -6.4733   10.8159 S   0  0  0  0  0  0  0  0  0  0  0  0
   -7.5973   -9.9590   15.2563 H   0  0  0  0  0  0  0  0  0  0  0  0
   -6.7083   -9.2015   16.5597 H   0  0  0  0  0  0  0  0  0  0  0  0
   -6.3857  -11.9495   17.9601 H   0  0  0  0  0  0  0  0  0  0  0  0
   -8.0312  -11.8644   16.8125 H   0  0  0  0  0  0  0  0  0  0  0  0
   -7.7893  -13.6709   17.7038 H   0  0  0  0  0  0  0  0  0  0  0  0
   -9.1853  -12.5553   18.4411 H   0  0  0  0  0  0  0  0  0  0  0  0
   -7.3081  -16.1824   23.3360 H   0  0  0  0  0  0  0  0  0  0  0  0
   -7.1867  -17.0943   23.1069 H   0  0  0  0  0  0  0  0  0  0  0  0
   -9.9958  -17.1518   25.2720 H   0  0  0  0  0  0  0  0  0  0  0  0
   -9.0013  -16.1510   25.0258 H   0  0  0  0  0  0  0  0  0  0  0  0
  -11.9267  -20.0157   24.7317 H   0  0  0  0  0  0  0  0  0  0  0  0
  -12.9492  -22.0779   24.4444 H   0  0  0  0  0  0  0  0  0  0  0  0
  -12.0155  -23.7321   22.8370 H   0  0  0  0  0  0  0  0  0  0  0  0
   -9.9824  -22.9908   21.6048 H   0  0  0  0  0  0  0  0  0  0  0  0
   -7.4551  -19.3338   21.6200 H   0  0  0  0  0  0  0  0  0  0  0  0
   -6.8866  -18.8072   23.0868 H   0  0  0  0  0  0  0  0  0  0  0  0
   -5.7338  -16.7974   21.3156 H   0  0  0  0  0  0  0  0  0  0  0  0
   -6.6633  -17.3686   20.4071 H   0  0  0  0  0  0  0  0  0  0  0  0
   -7.1991   -8.1707   13.3854 H   0  0  0  0  0  0  0  0  0  0  0  0
   -8.9569   -6.0281    7.5078 H   0  0  0  0  0  0  0  0  0  0  0  0
   -8.9756   -4.1006    6.4172 H   0  0  0  0  0  0  0  0  0  0  0  0
   -6.7959   -2.8361    6.3088 H   0  0  0  0  0  0  0  0  0  0  0  0
   -5.0500   -3.7597    7.7140 H   0  0  0  0  0  0  0  0  0  0  0  0
  1  2  2  0
  2  3  1  0
  3  4  1  0
  4  5  1  0
  5  6  1  0
  6  7  2  0
  6  8  1  0
  8  9  1  0
  9 10  1  0
 10 11  1  0
 11 12  1  0
 12 13  2  0
 13 14  1  0
 14 15  2  0
 15 16  1  0
 16 17  2  0
 11 18  1  0
 18 19  1  0
  2 20  1  0
 20 21  1  0
 21 22  2  0
 22 23  1  0
 23 24  2  0
 24 25  1  0
 25 26  2  0
 26 27  1  0
 27 28  2  0
 28 29  1  0
 19  8  1  0
 29 21  1  0
 17 12  1  0
 28 23  1  0
  3 30  1  0
  3 31  1  0
  4 32  1  0
  4 33  1  0
  5 34  1  0
  5 35  1  0
  9 36  1  0
  9 37  1  0
 10 38  1  0
 10 39  1  0
 13 40  1  0
 14 41  1  0
 15 42  1  0
 16 43  1  0
 18 44  1  0
 18 45  1  0
 19 46  1  0
 19 47  1  0
 20 48  1  0
 24 49  1  0
 25 50  1  0
 26 51  1  0
 27 52  1  0
M  END
>  <Energy>  (1130) 
2060.5037955659436

>  <compound_id>  (1130) 
11043

>  <target_id>  (1130) 
1

>  <reference_id>  (1130) 
69

>  <inspiration_ids>  (1130) 
[69, 82]

>  <energy_score>  (1130) 
1936.4495274335166

>  <distance_score>  (1130) 
7.090663012763822

>  <path>  (1130) 
/opt/xchem-fragalysis-2/maxwin/BulkDock/SCRATCH/511020/C11043-P69/C11043-P69.minimised.mol

>  <scratch_subdir>  (1130) 
/opt/xchem-fragalysis-2/maxwin/BulkDock/SCRATCH/511020/C11043-P69

>  <fragmenstein_runtime>  (1130) 
31.004597425460815

>  <fragmenstein_outcome>  (1130) 
too moved

>  <fragmenstein_mode>  (1130) 
expansion

>  <fragmenstein_error>  (1130) 


$$$$
C11043-P82
     RDKit          3D

 52 55  0  0  0  0  0  0  0  0999 V2000
   -7.3149  -10.0287   15.2378 O   0  0  0  0  0  0  0  0  0  0  0  0
   -8.1687  -10.8346   14.9491 C   0  0  0  0  0  0  0  0  0  0  0  0
   -8.3504  -12.3585   16.6858 C   0  0  0  0  0  0  0  0  0  0  0  0
   -8.2622  -13.7520   18.5152 C   0  0  0  0  0  0  0  0  0  0  0  0
   -8.6788  -15.5805   19.8753 C   0  0  0  0  0  0  0  0  0  0  0  0
   -8.1860  -16.5671   21.8987 C   0  0  0  0  0  0  0  0  0  0  0  0
   -7.0803  -17.0278   21.8488 O   0  0  0  0  0  0  0  0  0  0  0  0
   -9.2591  -16.3901   23.7251 N   0  0  0  0  0  0  0  0  0  0  0  0
   -8.7892  -16.6808   25.6629 C   0  0  0  0  0  0  0  0  0  0  0  0
   -8.4486  -18.0835   27.1030 C   0  0  0  0  0  0  0  0  0  0  0  0
   -7.3338  -19.6122   26.0735 N   0  0  0  0  0  0  0  0  0  0  0  0
   -7.9645  -21.0655   27.3055 C   0  0  0  0  0  0  0  0  0  0  0  0
   -9.7593  -21.0680   27.8120 C   0  0  0  0  0  0  0  0  0  0  0  0
  -10.8168  -21.9785   28.3614 C   0  0  0  0  0  0  0  0  0  0  0  0
  -10.5842  -23.2726   28.1102 C   0  0  0  0  0  0  0  0  0  0  0  0
   -9.2235  -23.4454   27.7740 C   0  0  0  0  0  0  0  0  0  0  0  0
   -7.7945  -22.4879   27.4657 N   0  0  0  0  0  0  0  0  0  0  0  0
   -8.4359  -19.2516   24.0816 C   0  0  0  0  0  0  0  0  0  0  0  0
  -10.1002  -17.7424   24.0355 C   0  0  0  0  0  0  0  0  0  0  0  0
   -8.8879  -10.3769   13.1823 N   0  0  0  0  0  0  0  0  0  0  0  0
   -8.4290   -8.9959   11.8556 C   0  0  0  0  0  0  0  0  0  0  0  0
   -8.5108   -8.6432   10.2306 N   0  0  0  0  0  0  0  0  0  0  0  0
   -7.6933   -7.7993    8.6963 C   0  0  0  0  0  0  0  0  0  0  0  0
   -8.0381   -6.2028    7.5704 C   0  0  0  0  0  0  0  0  0  0  0  0
   -7.8065   -4.9218    7.2658 C   0  0  0  0  0  0  0  0  0  0  0  0
   -6.9959   -4.7332    8.2554 C   0  0  0  0  0  0  0  0  0  0  0  0
   -6.6256   -5.8150    9.4458 C   0  0  0  0  0  0  0  0  0  0  0  0
   -6.7425   -7.4052    9.5811 C   0  0  0  0  0  0  0  0  0  0  0  0
   -6.2801   -7.9931   11.1648 S   0  0  0  0  0  0  0  0  0  0  0  0
   -7.6317  -11.7685   17.3340 H   0  0  0  0  0  0  0  0  0  0  0  0
   -9.3233  -12.1907   17.2199 H   0  0  0  0  0  0  0  0  0  0  0  0
   -7.6545  -13.0994   19.1495 H   0  0  0  0  0  0  0  0  0  0  0  0
   -7.8497  -14.4674   17.7905 H   0  0  0  0  0  0  0  0  0  0  0  0
   -9.6421  -15.7935   19.4332 H   0  0  0  0  0  0  0  0  0  0  0  0
   -8.5350  -14.5991   20.3653 H   0  0  0  0  0  0  0  0  0  0  0  0
   -8.1058  -15.8323   25.7977 H   0  0  0  0  0  0  0  0  0  0  0  0
   -9.6533  -16.2011   26.1630 H   0  0  0  0  0  0  0  0  0  0  0  0
   -9.2889  -18.3920   27.6837 H   0  0  0  0  0  0  0  0  0  0  0  0
   -7.8497  -17.4532   27.7891 H   0  0  0  0  0  0  0  0  0  0  0  0
  -10.3820  -20.9016   26.9057 H   0  0  0  0  0  0  0  0  0  0  0  0
  -11.7977  -21.6077   28.6281 H   0  0  0  0  0  0  0  0  0  0  0  0
  -11.2568  -24.0765   28.3661 H   0  0  0  0  0  0  0  0  0  0  0  0
   -9.0239  -24.4483   28.2374 H   0  0  0  0  0  0  0  0  0  0  0  0
   -7.6705  -19.1776   23.2353 H   0  0  0  0  0  0  0  0  0  0  0  0
   -9.5616  -19.6090   23.7224 H   0  0  0  0  0  0  0  0  0  0  0  0
  -11.0821  -17.2806   24.3394 H   0  0  0  0  0  0  0  0  0  0  0  0
  -10.2368  -17.5066   25.0791 H   0  0  0  0  0  0  0  0  0  0  0  0
   -9.5314  -11.1058   12.9247 H   0  0  0  0  0  0  0  0  0  0  0  0
   -9.1477   -6.2040    7.2572 H   0  0  0  0  0  0  0  0  0  0  0  0
   -8.1720   -4.2969    6.4830 H   0  0  0  0  0  0  0  0  0  0  0  0
   -6.2969   -3.9504    7.8998 H   0  0  0  0  0  0  0  0  0  0  0  0
   -5.7695   -5.9288   10.0857 H   0  0  0  0  0  0  0  0  0  0  0  0
  1  2  2  0
  2  3  1  0
  3  4  1  0
  4  5  1  0
  5  6  1  0
  6  7  2  0
  6  8  1  0
  8  9  1  0
  9 10  1  0
 10 11  1  0
 11 12  1  0
 12 13  2  0
 13 14  1  0
 14 15  2  0
 15 16  1  0
 16 17  2  0
 11 18  1  0
 18 19  1  0
  2 20  1  0
 20 21  1  0
 21 22  2  0
 22 23  1  0
 23 24  2  0
 24 25  1  0
 25 26  2  0
 26 27  1  0
 27 28  2  0
 28 29  1  0
 19  8  1  0
 29 21  1  0
 17 12  1  0
 28 23  1  0
  3 30  1  0
  3 31  1  0
  4 32  1  0
  4 33  1  0
  5 34  1  0
  5 35  1  0
  9 36  1  0
  9 37  1  0
 10 38  1  0
 10 39  1  0
 13 40  1  0
 14 41  1  0
 15 42  1  0
 16 43  1  0
 18 44  1  0
 18 45  1  0
 19 46  1  0
 19 47  1  0
 20 48  1  0
 24 49  1  0
 25 50  1  0
 26 51  1  0
 27 52  1  0
M  END
>  <Energy>  (1131) 
3275.6389476834579

>  <compound_id>  (1131) 
11043

>  <target_id>  (1131) 
1

>  <reference_id>  (1131) 
82

>  <inspiration_ids>  (1131) 
[69, 82]

>  <energy_score>  (1131) 
3151.584679550965

>  <distance_score>  (1131) 
5.863572764648308

>  <path>  (1131) 
/opt/xchem-fragalysis-2/maxwin/BulkDock/SCRATCH/511020/C11043-P82/C11043-P82.minimised.mol

>  <scratch_subdir>  (1131) 
/opt/xchem-fragalysis-2/maxwin/BulkDock/SCRATCH/511020/C11043-P82

>  <fragmenstein_runtime>  (1131) 
30.703798532485962

>  <fragmenstein_outcome>  (1131) 
too moved

>  <fragmenstein_mode>  (1131) 
expansion

>  <fragmenstein_error>  (1131) 


$$$$
C11044-P69
     RDKit          3D

 39 42  0  0  0  0  0  0  0  0999 V2000
   -3.8524  -10.1009   13.9462 O   0  0  0  0  0  0  0  0  0  0  0  0
   -5.0272  -10.5330   14.2880 C   0  0  0  0  0  0  0  0  0  0  0  0
   -6.0190  -10.4996   13.0219 C   0  0  0  0  0  0  0  0  0  0  0  0
   -6.4658   -9.3283   12.5422 N   0  0  0  0  0  0  0  0  0  0  0  0
   -5.4096   -8.8047   11.7891 C   0  0  0  0  0  0  0  0  0  0  0  0
   -5.0119   -7.4621   11.6727 C   0  0  0  0  0  0  0  0  0  0  0  0
   -3.7715   -7.1578   11.1262 C   0  0  0  0  0  0  0  0  0  0  0  0
   -2.9615   -8.1585   10.6180 C   0  0  0  0  0  0  0  0  0  0  0  0
   -3.4071   -9.4804   10.5523 C   0  0  0  0  0  0  0  0  0  0  0  0
   -4.6091   -9.7812   11.1980 C   0  0  0  0  0  0  0  0  0  0  0  0
   -5.3680  -11.3088   11.5475 S   0  0  0  0  0  0  0  0  0  0  0  0
   -5.7132  -11.1038   16.0492 N   0  0  0  0  0  0  0  0  0  0  0  0
   -4.8489  -11.3393   17.6728 C   0  0  0  0  0  0  0  0  0  0  0  0
   -5.8163  -12.2931   19.2457 C   0  0  0  0  0  0  0  0  0  0  0  0
   -7.4161  -13.3723   19.9352 N   0  0  0  0  0  0  0  0  0  0  0  0
   -7.9096  -15.2436   20.9045 C   0  0  0  0  0  0  0  0  0  0  0  0
   -7.2570  -16.8146   21.4144 C   0  0  0  0  0  0  0  0  0  0  0  0
   -7.9896  -18.1518   22.5629 C   0  0  0  0  0  0  0  0  0  0  0  0
   -9.5245  -18.2463   23.7298 C   0  0  0  0  0  0  0  0  0  0  0  0
   -9.2795  -16.3681   24.1332 C   0  0  0  0  0  0  0  0  0  0  0  0
   -8.1059  -16.1731   22.5349 N   0  0  0  0  0  0  0  0  0  0  0  0
   -7.3232  -12.0205   18.2607 C   0  0  0  0  0  0  0  0  0  0  0  0
   -6.3153  -10.4559   16.9635 C   0  0  0  0  0  0  0  0  0  0  0  0
   -5.5902   -6.6736   12.1322 H   0  0  0  0  0  0  0  0  0  0  0  0
   -3.4324   -6.1379   11.1124 H   0  0  0  0  0  0  0  0  0  0  0  0
   -1.9800   -7.9051   10.2193 H   0  0  0  0  0  0  0  0  0  0  0  0
   -2.7822  -10.2608   10.1322 H   0  0  0  0  0  0  0  0  0  0  0  0
   -3.9510  -10.6748   17.5068 H   0  0  0  0  0  0  0  0  0  0  0  0
   -3.9092  -11.8437   17.9870 H   0  0  0  0  0  0  0  0  0  0  0  0
   -6.2150  -11.5078   19.9017 H   0  0  0  0  0  0  0  0  0  0  0  0
   -4.8386  -12.2659   19.7855 H   0  0  0  0  0  0  0  0  0  0  0  0
   -6.3487  -17.1738   20.9110 H   0  0  0  0  0  0  0  0  0  0  0  0
   -7.3503  -19.0528   22.5806 H   0  0  0  0  0  0  0  0  0  0  0  0
   -9.7917  -19.0531   24.3950 H   0  0  0  0  0  0  0  0  0  0  0  0
   -8.8587  -16.0176   25.1467 H   0  0  0  0  0  0  0  0  0  0  0  0
   -8.1295  -12.4361   17.6753 H   0  0  0  0  0  0  0  0  0  0  0  0
   -7.7160  -11.2851   18.9357 H   0  0  0  0  0  0  0  0  0  0  0  0
   -6.5770   -9.3878   17.1949 H   0  0  0  0  0  0  0  0  0  0  0  0
   -6.8168  -10.0760   16.0916 H   0  0  0  0  0  0  0  0  0  0  0  0
  1  2  2  0
  2  3  1  0
  3  4  2  0
  4  5  1  0
  5  6  2  0
  6  7  1  0
  7  8  2  0
  8  9  1  0
  9 10  2  0
 10 11  1  0
  2 12  1  0
 12 13  1  0
 13 14  1  0
 14 15  1  0
 15 16  1  0
 16 17  2  0
 17 18  1  0
 18 19  2  0
 19 20  1  0
 20 21  2  0
 15 22  1  0
 22 23  1  0
 11  3  1  0
 23 12  1  0
 10  5  1  0
 21 16  1  0
  6 24  1  0
  7 25  1  0
  8 26  1  0
  9 27  1  0
 13 28  1  0
 13 29  1  0
 14 30  1  0
 14 31  1  0
 17 32  1  0
 18 33  1  0
 19 34  1  0
 20 35  1  0
 22 36  1  0
 22 37  1  0
 23 38  1  0
 23 39  1  0
M  END
>  <Energy>  (1132) 
2454.5003127642553

>  <compound_id>  (1132) 
11044

>  <target_id>  (1132) 
1

>  <reference_id>  (1132) 
69

>  <inspiration_ids>  (1132) 
[69, 82]

>  <energy_score>  (1132) 
2291.4789645268975

>  <distance_score>  (1132) 
11.056923306534149

>  <path>  (1132) 
/opt/xchem-fragalysis-2/maxwin/BulkDock/SCRATCH/511020/C11044-P69/C11044-P69.minimised.mol

>  <scratch_subdir>  (1132) 
/opt/xchem-fragalysis-2/maxwin/BulkDock/SCRATCH/511020/C11044-P69

>  <fragmenstein_runtime>  (1132) 
24.27527642250061

>  <fragmenstein_outcome>  (1132) 
too moved

>  <fragmenstein_mode>  (1132) 
expansion

>  <fragmenstein_error>  (1132) 


$$$$
C11044-P82
     RDKit          3D

 39 42  0  0  0  0  0  0  0  0999 V2000
   -5.4686  -14.6341   12.6791 O   0  0  0  0  0  0  0  0  0  0  0  0
   -5.4766  -15.8352   12.9329 C   0  0  0  0  0  0  0  0  0  0  0  0
   -4.7169  -16.5946   11.8507 C   0  0  0  0  0  0  0  0  0  0  0  0
   -5.1937  -16.5117   10.5803 N   0  0  0  0  0  0  0  0  0  0  0  0
   -4.9021  -15.2101   10.0552 C   0  0  0  0  0  0  0  0  0  0  0  0
   -5.6616  -14.4399    9.1334 C   0  0  0  0  0  0  0  0  0  0  0  0
   -5.2876  -13.1179    8.8217 C   0  0  0  0  0  0  0  0  0  0  0  0
   -4.1346  -12.5657    9.3721 C   0  0  0  0  0  0  0  0  0  0  0  0
   -3.3245  -13.3245   10.2324 C   0  0  0  0  0  0  0  0  0  0  0  0
   -3.7376  -14.6349   10.5744 C   0  0  0  0  0  0  0  0  0  0  0  0
   -3.0140  -15.8492   11.6434 S   0  0  0  0  0  0  0  0  0  0  0  0
   -6.1122  -16.5884   14.2760 N   0  0  0  0  0  0  0  0  0  0  0  0
   -6.8716  -15.8522   15.8697 C   0  0  0  0  0  0  0  0  0  0  0  0
   -7.7191  -16.5710   17.4383 C   0  0  0  0  0  0  0  0  0  0  0  0
   -7.9496  -17.9524   17.2866 N   0  0  0  0  0  0  0  0  0  0  0  0
   -7.1214  -18.8405   18.2662 C   0  0  0  0  0  0  0  0  0  0  0  0
   -7.5653  -20.2428   18.6056 C   0  0  0  0  0  0  0  0  0  0  0  0
   -6.8953  -21.0857   19.4803 C   0  0  0  0  0  0  0  0  0  0  0  0
   -5.6808  -20.6433   19.9120 C   0  0  0  0  0  0  0  0  0  0  0  0
   -5.2871  -19.3601   19.5346 C   0  0  0  0  0  0  0  0  0  0  0  0
   -6.0024  -18.4168   18.8596 N   0  0  0  0  0  0  0  0  0  0  0  0
   -8.5779  -17.7669   15.8573 C   0  0  0  0  0  0  0  0  0  0  0  0
   -7.8866  -17.1100   14.0835 C   0  0  0  0  0  0  0  0  0  0  0  0
   -6.5695  -14.8654    8.7179 H   0  0  0  0  0  0  0  0  0  0  0  0
   -5.9050  -12.5295    8.1477 H   0  0  0  0  0  0  0  0  0  0  0  0
   -3.8501  -11.5448    9.1280 H   0  0  0  0  0  0  0  0  0  0  0  0
   -2.4215  -12.9029   10.6625 H   0  0  0  0  0  0  0  0  0  0  0  0
   -7.1819  -14.8558   15.6437 H   0  0  0  0  0  0  0  0  0  0  0  0
   -5.9328  -15.8365   16.4096 H   0  0  0  0  0  0  0  0  0  0  0  0
   -8.6852  -16.0923   17.5165 H   0  0  0  0  0  0  0  0  0  0  0  0
   -7.7402  -16.4156   18.4951 H   0  0  0  0  0  0  0  0  0  0  0  0
   -8.4835  -20.6395   18.1853 H   0  0  0  0  0  0  0  0  0  0  0  0
   -7.2746  -22.0690   19.7253 H   0  0  0  0  0  0  0  0  0  0  0  0
   -5.0211  -21.2846   20.4825 H   0  0  0  0  0  0  0  0  0  0  0  0
   -4.2624  -19.0542   19.6986 H   0  0  0  0  0  0  0  0  0  0  0  0
   -9.5424  -18.3260   15.7311 H   0  0  0  0  0  0  0  0  0  0  0  0
   -8.5876  -16.7695   16.0113 H   0  0  0  0  0  0  0  0  0  0  0  0
   -7.7427  -17.9829   13.4239 H   0  0  0  0  0  0  0  0  0  0  0  0
   -8.6721  -16.5403   13.6215 H   0  0  0  0  0  0  0  0  0  0  0  0
  1  2  2  0
  2  3  1  0
  3  4  2  0
  4  5  1  0
  5  6  2  0
  6  7  1  0
  7  8  2  0
  8  9  1  0
  9 10  2  0
 10 11  1  0
  2 12  1  0
 12 13  1  0
 13 14  1  0
 14 15  1  0
 15 16  1  0
 16 17  2  0
 17 18  1  0
 18 19  2  0
 19 20  1  0
 20 21  2  0
 15 22  1  0
 22 23  1  0
 11  3  1  0
 23 12  1  0
 10  5  1  0
 21 16  1  0
  6 24  1  0
  7 25  1  0
  8 26  1  0
  9 27  1  0
 13 28  1  0
 13 29  1  0
 14 30  1  0
 14 31  1  0
 17 32  1  0
 18 33  1  0
 19 34  1  0
 20 35  1  0
 22 36  1  0
 22 37  1  0
 23 38  1  0
 23 39  1  0
M  END
>  <Energy>  (1133) 
577.15642327184855

>  <compound_id>  (1133) 
11044

>  <target_id>  (1133) 
1

>  <reference_id>  (1133) 
82

>  <inspiration_ids>  (1133) 
[69, 82]

>  <energy_score>  (1133) 
414.1350750344832

>  <distance_score>  (1133) 
13.949253658926361

>  <path>  (1133) 
/opt/xchem-fragalysis-2/maxwin/BulkDock/SCRATCH/511020/C11044-P82/C11044-P82.minimised.mol

>  <scratch_subdir>  (1133) 
/opt/xchem-fragalysis-2/maxwin/BulkDock/SCRATCH/511020/C11044-P82

>  <fragmenstein_runtime>  (1133) 
21.58383011817932

>  <fragmenstein_outcome>  (1133) 
too moved

>  <fragmenstein_mode>  (1133) 
expansion

>  <fragmenstein_error>  (1133) 


$$$$
C11045-P69
     RDKit          3D

 39 42  0  0  0  0  0  0  0  0999 V2000
  -11.9175  -15.4795   14.2879 O   0  0  0  0  0  0  0  0  0  0  0  0
  -10.9150  -15.8148   13.6792 C   0  0  0  0  0  0  0  0  0  0  0  0
  -10.4874  -14.5984   12.5785 C   0  0  0  0  0  0  0  0  0  0  0  0
  -11.1420  -14.2326   11.4572 N   0  0  0  0  0  0  0  0  0  0  0  0
  -10.6641  -12.9919   10.8351 C   0  0  0  0  0  0  0  0  0  0  0  0
  -11.0703  -12.4786    9.5724 C   0  0  0  0  0  0  0  0  0  0  0  0
  -10.5180  -11.2929    9.0591 C   0  0  0  0  0  0  0  0  0  0  0  0
   -9.5638  -10.5956    9.7857 C   0  0  0  0  0  0  0  0  0  0  0  0
   -9.1687  -11.0374   11.0489 C   0  0  0  0  0  0  0  0  0  0  0  0
   -9.7182  -12.2411   11.5497 C   0  0  0  0  0  0  0  0  0  0  0  0
   -9.3333  -13.0304   13.0599 S   0  0  0  0  0  0  0  0  0  0  0  0
   -9.9771  -17.3540   14.0766 N   0  0  0  0  0  0  0  0  0  0  0  0
  -10.4584  -18.4069   13.3236 C   0  0  0  0  0  0  0  0  0  0  0  0
   -9.8341  -19.6806   12.6008 C   0  0  0  0  0  0  0  0  0  0  0  0
  -10.3624  -20.8253   13.3616 N   0  0  0  0  0  0  0  0  0  0  0  0
  -10.0462  -20.5266   14.8129 C   0  0  0  0  0  0  0  0  0  0  0  0
  -10.2053  -18.7241   15.6048 C   0  0  0  0  0  0  0  0  0  0  0  0
   -9.7751  -19.0473   17.6743 C   0  0  0  0  0  0  0  0  0  0  0  0
  -11.3507  -19.3537   18.8114 C   0  0  0  0  0  0  0  0  0  0  0  0
  -11.3171  -20.5078   20.2425 C   0  0  0  0  0  0  0  0  0  0  0  0
  -10.1110  -21.1206   20.5072 C   0  0  0  0  0  0  0  0  0  0  0  0
   -9.0979  -20.5638   19.5172 C   0  0  0  0  0  0  0  0  0  0  0  0
   -8.8620  -19.9788   18.1056 N   0  0  0  0  0  0  0  0  0  0  0  0
  -11.8037  -13.0333    8.9949 H   0  0  0  0  0  0  0  0  0  0  0  0
  -10.8262  -10.9344    8.0794 H   0  0  0  0  0  0  0  0  0  0  0  0
   -9.1100   -9.7034    9.3690 H   0  0  0  0  0  0  0  0  0  0  0  0
   -8.4300  -10.4840   11.6215 H   0  0  0  0  0  0  0  0  0  0  0  0
  -11.4308  -18.5531   13.7155 H   0  0  0  0  0  0  0  0  0  0  0  0
  -10.3063  -17.6982   12.5611 H   0  0  0  0  0  0  0  0  0  0  0  0
   -8.7665  -19.6467   12.3408 H   0  0  0  0  0  0  0  0  0  0  0  0
   -9.9454  -19.7946   11.5396 H   0  0  0  0  0  0  0  0  0  0  0  0
  -11.3664  -20.8582   13.2568 H   0  0  0  0  0  0  0  0  0  0  0  0
   -9.2035  -21.2314   14.8685 H   0  0  0  0  0  0  0  0  0  0  0  0
  -10.2305  -21.2663   15.5733 H   0  0  0  0  0  0  0  0  0  0  0  0
   -9.3118  -18.1330   15.7098 H   0  0  0  0  0  0  0  0  0  0  0  0
  -12.3880  -19.1060   18.5982 H   0  0  0  0  0  0  0  0  0  0  0  0
  -11.9532  -20.5962   21.0835 H   0  0  0  0  0  0  0  0  0  0  0  0
   -9.8834  -21.5023   21.4886 H   0  0  0  0  0  0  0  0  0  0  0  0
   -8.3419  -19.9860   20.0828 H   0  0  0  0  0  0  0  0  0  0  0  0
  1  2  2  0
  2  3  1  0
  3  4  2  0
  4  5  1  0
  5  6  2  0
  6  7  1  0
  7  8  2  0
  8  9  1  0
  9 10  2  0
 10 11  1  0
  2 12  1  0
 12 13  1  0
 13 14  1  0
 14 15  1  0
 15 16  1  0
 16 17  1  0
 17 18  1  0
 18 19  2  0
 19 20  1  0
 20 21  2  0
 21 22  1  0
 22 23  2  0
 11  3  1  0
 17 12  1  0
 23 18  1  0
 10  5  1  0
  6 24  1  0
  7 25  1  0
  8 26  1  0
  9 27  1  0
 13 28  1  0
 13 29  1  0
 14 30  1  0
 14 31  1  0
 15 32  1  0
 16 33  1  0
 16 34  1  0
 17 35  1  0
 19 36  1  0
 20 37  1  0
 21 38  1  0
 22 39  1  0
M  END
>  <Energy>  (1134) 
894.05701391412242

>  <compound_id>  (1134) 
11045

>  <target_id>  (1134) 
1

>  <reference_id>  (1134) 
69

>  <inspiration_ids>  (1134) 
[69, 82]

>  <energy_score>  (1134) 
676.5592905252381

>  <distance_score>  (1134) 
12.668375882142211

>  <path>  (1134) 
/opt/xchem-fragalysis-2/maxwin/BulkDock/SCRATCH/511020/C11045-P69/C11045-P69.minimised.mol

>  <scratch_subdir>  (1134) 
/opt/xchem-fragalysis-2/maxwin/BulkDock/SCRATCH/511020/C11045-P69

>  <fragmenstein_runtime>  (1134) 
22.25131106376648

>  <fragmenstein_outcome>  (1134) 
too moved

>  <fragmenstein_mode>  (1134) 
expansion

>  <fragmenstein_error>  (1134) 


$$$$
C11045-P82
     RDKit          3D

 39 42  0  0  0  0  0  0  0  0999 V2000
   -7.7692  -17.5288   22.2438 O   0  0  0  0  0  0  0  0  0  0  0  0
   -7.5317  -18.7028   22.1901 C   0  0  0  0  0  0  0  0  0  0  0  0
   -6.5279  -18.9708   21.1032 C   0  0  0  0  0  0  0  0  0  0  0  0
   -6.5521  -19.6429   19.9603 N   0  0  0  0  0  0  0  0  0  0  0  0
   -6.7237  -18.7535   18.8724 C   0  0  0  0  0  0  0  0  0  0  0  0
   -7.5509  -18.7974   17.7746 C   0  0  0  0  0  0  0  0  0  0  0  0
   -8.2054  -17.6117   17.0008 C   0  0  0  0  0  0  0  0  0  0  0  0
   -7.9382  -16.3708   17.1722 C   0  0  0  0  0  0  0  0  0  0  0  0
   -7.9228  -16.4797   18.4491 C   0  0  0  0  0  0  0  0  0  0  0  0
   -6.7800  -17.4516   19.1658 C   0  0  0  0  0  0  0  0  0  0  0  0
   -5.9129  -17.5240   20.5472 S   0  0  0  0  0  0  0  0  0  0  0  0
   -8.1459  -19.8364   22.9278 N   0  0  0  0  0  0  0  0  0  0  0  0
   -7.3809  -20.1038   24.2112 C   0  0  0  0  0  0  0  0  0  0  0  0
   -7.3842  -19.5367   25.6920 C   0  0  0  0  0  0  0  0  0  0  0  0
   -8.6158  -19.0042   26.3222 N   0  0  0  0  0  0  0  0  0  0  0  0
   -9.7754  -19.1743   25.3971 C   0  0  0  0  0  0  0  0  0  0  0  0
   -9.4040  -19.8708   23.9347 C   0  0  0  0  0  0  0  0  0  0  0  0
  -10.5504  -21.0108   23.4279 C   0  0  0  0  0  0  0  0  0  0  0  0
  -10.2953  -21.8791   22.3696 C   0  0  0  0  0  0  0  0  0  0  0  0
  -11.0729  -23.0198   22.1528 C   0  0  0  0  0  0  0  0  0  0  0  0
  -12.1147  -23.3048   23.0029 C   0  0  0  0  0  0  0  0  0  0  0  0
  -12.3652  -22.3869   23.9905 C   0  0  0  0  0  0  0  0  0  0  0  0
  -11.6456  -21.2459   24.1993 N   0  0  0  0  0  0  0  0  0  0  0  0
   -8.0294  -19.8128   17.6881 H   0  0  0  0  0  0  0  0  0  0  0  0
   -8.6261  -17.6743   16.0136 H   0  0  0  0  0  0  0  0  0  0  0  0
   -7.2053  -15.8794   16.5367 H   0  0  0  0  0  0  0  0  0  0  0  0
   -8.5643  -15.8055   19.0434 H   0  0  0  0  0  0  0  0  0  0  0  0
   -7.2809  -21.1939   24.2436 H   0  0  0  0  0  0  0  0  0  0  0  0
   -6.3663  -19.8365   23.9215 H   0  0  0  0  0  0  0  0  0  0  0  0
   -6.6229  -18.7468   25.7600 H   0  0  0  0  0  0  0  0  0  0  0  0
   -6.9901  -20.3297   26.3422 H   0  0  0  0  0  0  0  0  0  0  0  0
   -8.8532  -19.5769   27.1404 H   0  0  0  0  0  0  0  0  0  0  0  0
  -10.2984  -18.2053   25.3134 H   0  0  0  0  0  0  0  0  0  0  0  0
  -10.5839  -19.7749   25.8174 H   0  0  0  0  0  0  0  0  0  0  0  0
   -9.9012  -19.0021   23.6026 H   0  0  0  0  0  0  0  0  0  0  0  0
   -9.5040  -21.6804   21.6736 H   0  0  0  0  0  0  0  0  0  0  0  0
  -10.8549  -23.6730   21.3149 H   0  0  0  0  0  0  0  0  0  0  0  0
  -12.7277  -24.1883   22.8846 H   0  0  0  0  0  0  0  0  0  0  0  0
  -13.1754  -22.5886   24.6753 H   0  0  0  0  0  0  0  0  0  0  0  0
  1  2  2  0
  2  3  1  0
  3  4  2  0
  4  5  1  0
  5  6  2  0
  6  7  1  0
  7  8  2  0
  8  9  1  0
  9 10  2  0
 10 11  1  0
  2 12  1  0
 12 13  1  0
 13 14  1  0
 14 15  1  0
 15 16  1  0
 16 17  1  0
 17 18  1  0
 18 19  2  0
 19 20  1  0
 20 21  2  0
 21 22  1  0
 22 23  2  0
 11  3  1  0
 17 12  1  0
 23 18  1  0
 10  5  1  0
  6 24  1  0
  7 25  1  0
  8 26  1  0
  9 27  1  0
 13 28  1  0
 13 29  1  0
 14 30  1  0
 14 31  1  0
 15 32  1  0
 16 33  1  0
 16 34  1  0
 17 35  1  0
 19 36  1  0
 20 37  1  0
 21 38  1  0
 22 39  1  0
M  END
>  <Energy>  (1135) 
492.40911093263315

>  <compound_id>  (1135) 
11045

>  <target_id>  (1135) 
1

>  <reference_id>  (1135) 
82

>  <inspiration_ids>  (1135) 
[69, 82]

>  <energy_score>  (1135) 
274.9113875437504

>  <distance_score>  (1135) 
16.231719904196446

>  <path>  (1135) 
/opt/xchem-fragalysis-2/maxwin/BulkDock/SCRATCH/511020/C11045-P82/C11045-P82.minimised.mol

>  <scratch_subdir>  (1135) 
/opt/xchem-fragalysis-2/maxwin/BulkDock/SCRATCH/511020/C11045-P82

>  <fragmenstein_runtime>  (1135) 
22.323078870773315

>  <fragmenstein_outcome>  (1135) 
too moved

>  <fragmenstein_mode>  (1135) 
expansion

>  <fragmenstein_error>  (1135) 


$$$$
C52437-P69
     RDKit          3D

 41 44  0  0  0  0  0  0  0  0999 V2000
   -7.6882  -16.1226   25.2404 O   0  0  0  0  0  0  0  0  0  0  0  0
   -8.8041  -16.0570   25.3366 C   0  0  0  0  0  0  0  0  0  0  0  0
   -9.6599  -15.0660   23.8921 N   0  0  0  0  0  0  0  0  0  0  0  0
   -8.8901  -14.0091   22.3032 C   0  0  0  0  0  0  0  0  0  0  0  0
   -9.1563  -13.0733   20.4479 C   0  0  0  0  0  0  0  0  0  0  0  0
   -9.3869  -11.6726   19.4541 N   0  0  0  0  0  0  0  0  0  0  0  0
   -8.7496   -9.8668   19.4101 C   0  0  0  0  0  0  0  0  0  0  0  0
   -8.8977   -8.1147   19.6602 C   0  0  0  0  0  0  0  0  0  0  0  0
   -8.1270   -7.0705   18.8313 C   0  0  0  0  0  0  0  0  0  0  0  0
   -7.2726   -7.5885   17.5688 C   0  0  0  0  0  0  0  0  0  0  0  0
   -7.0419   -9.1978   17.4480 C   0  0  0  0  0  0  0  0  0  0  0  0
   -7.5530  -10.3562   18.8406 C   0  0  0  0  0  0  0  0  0  0  0  0
   -7.7071  -12.4563   18.8708 S   0  0  0  0  0  0  0  0  0  0  0  0
  -10.0498  -16.8246   26.6474 N   0  0  0  0  0  0  0  0  0  0  0  0
   -9.9832  -17.8484   28.3811 C   0  0  0  0  0  0  0  0  0  0  0  0
  -11.0398  -19.4069   29.5575 C   0  0  0  0  0  0  0  0  0  0  0  0
  -10.3057  -20.9024   29.1101 N   0  0  0  0  0  0  0  0  0  0  0  0
  -11.0947  -21.9832   28.7638 C   0  0  0  0  0  0  0  0  0  0  0  0
  -11.0848  -22.5440   27.5733 N   0  0  0  0  0  0  0  0  0  0  0  0
  -11.1188  -23.9063   27.6725 C   0  0  0  0  0  0  0  0  0  0  0  0
  -11.4250  -24.3730   28.9235 C   0  0  0  0  0  0  0  0  0  0  0  0
  -11.7632  -23.0261   29.9598 S   0  0  0  0  0  0  0  0  0  0  0  0
   -9.3846  -20.2916   27.8390 C   0  0  0  0  0  0  0  0  0  0  0  0
   -9.3370  -18.1175   27.9961 C   0  0  0  0  0  0  0  0  0  0  0  0
  -10.6623  -15.1264   24.0102 H   0  0  0  0  0  0  0  0  0  0  0  0
   -8.4535  -13.1683   22.8581 H   0  0  0  0  0  0  0  0  0  0  0  0
   -8.0987  -14.7137   22.0200 H   0  0  0  0  0  0  0  0  0  0  0  0
   -9.7624   -7.7280   20.2075 H   0  0  0  0  0  0  0  0  0  0  0  0
   -8.2951   -6.0046   18.9688 H   0  0  0  0  0  0  0  0  0  0  0  0
   -6.8229   -6.8815   16.8770 H   0  0  0  0  0  0  0  0  0  0  0  0
   -6.4679   -9.7400   16.6869 H   0  0  0  0  0  0  0  0  0  0  0  0
   -9.8782  -16.8605   29.1145 H   0  0  0  0  0  0  0  0  0  0  0  0
  -11.0990  -17.3905   28.4645 H   0  0  0  0  0  0  0  0  0  0  0  0
  -10.7580  -19.8499   30.5424 H   0  0  0  0  0  0  0  0  0  0  0  0
  -12.1124  -19.5812   29.2782 H   0  0  0  0  0  0  0  0  0  0  0  0
  -10.9403  -24.5119   26.7931 H   0  0  0  0  0  0  0  0  0  0  0  0
  -11.5224  -25.4025   29.2348 H   0  0  0  0  0  0  0  0  0  0  0  0
  -10.0575  -20.6691   27.0434 H   0  0  0  0  0  0  0  0  0  0  0  0
   -8.3295  -20.8491   27.5996 H   0  0  0  0  0  0  0  0  0  0  0  0
   -8.2584  -17.8480   28.6684 H   0  0  0  0  0  0  0  0  0  0  0  0
   -8.3694  -17.8777   27.3438 H   0  0  0  0  0  0  0  0  0  0  0  0
  1  2  2  0
  2  3  1  0
  3  4  1  0
  4  5  1  0
  5  6  2  0
  6  7  1  0
  7  8  2  0
  8  9  1  0
  9 10  2  0
 10 11  1  0
 11 12  2  0
 12 13  1  0
  2 14  1  0
 14 15  1  0
 15 16  1  0
 16 17  1  0
 17 18  1  0
 18 19  2  0
 19 20  1  0
 20 21  2  0
 21 22  1  0
 17 23  1  0
 23 24  1  0
 13  5  1  0
 24 14  1  0
 12  7  1  0
 22 18  1  0
  3 25  1  0
  4 26  1  0
  4 27  1  0
  8 28  1  0
  9 29  1  0
 10 30  1  0
 11 31  1  0
 15 32  1  0
 15 33  1  0
 16 34  1  0
 16 35  1  0
 20 36  1  0
 21 37  1  0
 23 38  1  0
 23 39  1  0
 24 40  1  0
 24 41  1  0
M  END
>  <Energy>  (1136) 
1934.8365812019545

>  <compound_id>  (1136) 
52437

>  <target_id>  (1136) 
1

>  <reference_id>  (1136) 
69

>  <inspiration_ids>  (1136) 
[69, 82]

>  <energy_score>  (1136) 
1841.4787830121902

>  <distance_score>  (1136) 
11.651529116133876

>  <path>  (1136) 
/opt/xchem-fragalysis-2/maxwin/BulkDock/SCRATCH/511020/C52437-P69/C52437-P69.minimised.mol

>  <scratch_subdir>  (1136) 
/opt/xchem-fragalysis-2/maxwin/BulkDock/SCRATCH/511020/C52437-P69

>  <fragmenstein_runtime>  (1136) 
32.724568605422974

>  <fragmenstein_outcome>  (1136) 
too moved

>  <fragmenstein_mode>  (1136) 
expansion

>  <fragmenstein_error>  (1136) 


$$$$
C52437-P82
     RDKit          3D

 41 44  0  0  0  0  0  0  0  0999 V2000
   -4.1590  -19.0534   10.5395 O   0  0  0  0  0  0  0  0  0  0  0  0
   -4.4349  -18.0801   11.0499 C   0  0  0  0  0  0  0  0  0  0  0  0
   -4.1229  -16.6881   10.6763 N   0  0  0  0  0  0  0  0  0  0  0  0
   -3.2864  -16.1577    9.5972 C   0  0  0  0  0  0  0  0  0  0  0  0
   -3.7245  -15.0000    8.6944 C   0  0  0  0  0  0  0  0  0  0  0  0
   -2.8936  -14.0335    8.3135 N   0  0  0  0  0  0  0  0  0  0  0  0
   -3.4600  -13.2272    7.3358 C   0  0  0  0  0  0  0  0  0  0  0  0
   -2.8172  -12.1849    6.6371 C   0  0  0  0  0  0  0  0  0  0  0  0
   -3.4823  -11.5419    5.5901 C   0  0  0  0  0  0  0  0  0  0  0  0
   -4.8049  -11.8360    5.3068 C   0  0  0  0  0  0  0  0  0  0  0  0
   -5.4735  -12.8382    6.0164 C   0  0  0  0  0  0  0  0  0  0  0  0
   -4.7700  -13.5494    7.0026 C   0  0  0  0  0  0  0  0  0  0  0  0
   -5.2650  -14.9248    7.9329 S   0  0  0  0  0  0  0  0  0  0  0  0
   -5.3569  -17.7395   12.4410 N   0  0  0  0  0  0  0  0  0  0  0  0
   -5.8036  -18.7273   13.2480 C   0  0  0  0  0  0  0  0  0  0  0  0
   -4.6028  -18.9649   14.7097 C   0  0  0  0  0  0  0  0  0  0  0  0
   -5.3770  -18.5115   15.8566 N   0  0  0  0  0  0  0  0  0  0  0  0
   -5.2267  -19.1435   17.0481 C   0  0  0  0  0  0  0  0  0  0  0  0
   -4.1922  -19.9088   17.3286 N   0  0  0  0  0  0  0  0  0  0  0  0
   -4.2735  -20.4041   18.6127 C   0  0  0  0  0  0  0  0  0  0  0  0
   -5.3846  -20.0201   19.3244 C   0  0  0  0  0  0  0  0  0  0  0  0
   -6.3578  -19.0030   18.3556 S   0  0  0  0  0  0  0  0  0  0  0  0
   -6.6369  -18.1234   15.3014 C   0  0  0  0  0  0  0  0  0  0  0  0
   -6.4684  -18.7636   13.6654 C   0  0  0  0  0  0  0  0  0  0  0  0
   -4.4560  -16.0605   11.4038 H   0  0  0  0  0  0  0  0  0  0  0  0
   -3.0354  -17.0046    8.9470 H   0  0  0  0  0  0  0  0  0  0  0  0
   -2.3512  -15.8573   10.0850 H   0  0  0  0  0  0  0  0  0  0  0  0
   -1.7765  -11.9631    6.8520 H   0  0  0  0  0  0  0  0  0  0  0  0
   -2.9353  -10.8550    4.9510 H   0  0  0  0  0  0  0  0  0  0  0  0
   -5.2933  -11.3349    4.4755 H   0  0  0  0  0  0  0  0  0  0  0  0
   -6.4819  -13.1381    5.7532 H   0  0  0  0  0  0  0  0  0  0  0  0
   -6.0161  -19.6267   12.2642 H   0  0  0  0  0  0  0  0  0  0  0  0
   -4.8306  -19.3766   12.9160 H   0  0  0  0  0  0  0  0  0  0  0  0
   -4.3761  -20.0407   14.7557 H   0  0  0  0  0  0  0  0  0  0  0  0
   -3.7176  -18.3455   14.5227 H   0  0  0  0  0  0  0  0  0  0  0  0
   -3.4843  -21.0472   18.9819 H   0  0  0  0  0  0  0  0  0  0  0  0
   -5.6591  -20.2782   20.3361 H   0  0  0  0  0  0  0  0  0  0  0  0
   -6.7595  -17.0377   15.2405 H   0  0  0  0  0  0  0  0  0  0  0  0
   -7.5178  -18.6076   15.7358 H   0  0  0  0  0  0  0  0  0  0  0  0
   -7.5601  -18.3212   13.3147 H   0  0  0  0  0  0  0  0  0  0  0  0
   -6.9022  -19.9818   13.7123 H   0  0  0  0  0  0  0  0  0  0  0  0
  1  2  2  0
  2  3  1  0
  3  4  1  0
  4  5  1  0
  5  6  2  0
  6  7  1  0
  7  8  2  0
  8  9  1  0
  9 10  2  0
 10 11  1  0
 11 12  2  0
 12 13  1  0
  2 14  1  0
 14 15  1  0
 15 16  1  0
 16 17  1  0
 17 18  1  0
 18 19  2  0
 19 20  1  0
 20 21  2  0
 21 22  1  0
 17 23  1  0
 23 24  1  0
 13  5  1  0
 24 14  1  0
 12  7  1  0
 22 18  1  0
  3 25  1  0
  4 26  1  0
  4 27  1  0
  8 28  1  0
  9 29  1  0
 10 30  1  0
 11 31  1  0
 15 32  1  0
 15 33  1  0
 16 34  1  0
 16 35  1  0
 20 36  1  0
 21 37  1  0
 23 38  1  0
 23 39  1  0
 24 40  1  0
 24 41  1  0
M  END
>  <Energy>  (1137) 
748.43884015064134

>  <compound_id>  (1137) 
52437

>  <target_id>  (1137) 
1

>  <reference_id>  (1137) 
82

>  <inspiration_ids>  (1137) 
[69, 82]

>  <energy_score>  (1137) 
655.0810419608563

>  <distance_score>  (1137) 
16.49444540093195

>  <path>  (1137) 
/opt/xchem-fragalysis-2/maxwin/BulkDock/SCRATCH/511020/C52437-P82/C52437-P82.minimised.mol

>  <scratch_subdir>  (1137) 
/opt/xchem-fragalysis-2/maxwin/BulkDock/SCRATCH/511020/C52437-P82

>  <fragmenstein_runtime>  (1137) 
51.07156014442444

>  <fragmenstein_outcome>  (1137) 
too moved

>  <fragmenstein_mode>  (1137) 
expansion

>  <fragmenstein_error>  (1137) 


$$$$
C11046-P69
     RDKit          3D

 44 47  0  0  0  0  0  0  0  0999 V2000
   -7.9540  -16.8178   14.5195 O   0  0  0  0  0  0  0  0  0  0  0  0
   -7.6916  -15.9229   15.3026 C   0  0  0  0  0  0  0  0  0  0  0  0
   -7.7614  -14.4456   15.1349 N   0  0  0  0  0  0  0  0  0  0  0  0
   -8.3743  -13.4225   13.7918 C   0  0  0  0  0  0  0  0  0  0  0  0
   -9.3723  -13.0154   12.7452 C   0  0  0  0  0  0  0  0  0  0  0  0
  -10.3470  -13.6560   12.1117 N   0  0  0  0  0  0  0  0  0  0  0  0
  -10.9852  -12.8614   11.1567 C   0  0  0  0  0  0  0  0  0  0  0  0
  -11.8354  -13.3191   10.1257 C   0  0  0  0  0  0  0  0  0  0  0  0
  -12.4434  -12.4231    9.2344 C   0  0  0  0  0  0  0  0  0  0  0  0
  -12.2471  -11.0642    9.3723 C   0  0  0  0  0  0  0  0  0  0  0  0
  -11.4381  -10.6000   10.4006 C   0  0  0  0  0  0  0  0  0  0  0  0
  -10.7934  -11.4917   11.2722 C   0  0  0  0  0  0  0  0  0  0  0  0
   -9.4880  -11.1207   12.6000 S   0  0  0  0  0  0  0  0  0  0  0  0
   -7.2174  -15.9855   17.1491 N   0  0  0  0  0  0  0  0  0  0  0  0
   -8.2800  -15.9182   18.1487 C   0  0  0  0  0  0  0  0  0  0  0  0
   -8.5422  -15.6677   19.9837 C   0  0  0  0  0  0  0  0  0  0  0  0
   -7.4343  -16.6351   21.2783 N   0  0  0  0  0  0  0  0  0  0  0  0
   -7.9579  -17.9311   22.4352 C   0  0  0  0  0  0  0  0  0  0  0  0
   -7.1384  -18.9778   22.5735 C   0  0  0  0  0  0  0  0  0  0  0  0
   -8.0064  -20.2529   22.6755 C   0  0  0  0  0  0  0  0  0  0  0  0
   -9.4929  -20.9151   22.9712 C   0  0  0  0  0  0  0  0  0  0  0  0
  -10.2588  -19.9408   23.4587 C   0  0  0  0  0  0  0  0  0  0  0  0
   -9.4562  -18.4244   23.2958 N   0  0  0  0  0  0  0  0  0  0  0  0
   -6.4982  -17.5142   20.1389 C   0  0  0  0  0  0  0  0  0  0  0  0
   -6.8777  -17.4630   18.3335 C   0  0  0  0  0  0  0  0  0  0  0  0
   -7.3812  -13.9977   15.9755 H   0  0  0  0  0  0  0  0  0  0  0  0
   -8.9687  -12.8491   14.5339 H   0  0  0  0  0  0  0  0  0  0  0  0
   -7.5287  -12.7909   13.4563 H   0  0  0  0  0  0  0  0  0  0  0  0
  -12.0026  -14.3879   10.0244 H   0  0  0  0  0  0  0  0  0  0  0  0
  -13.0739  -12.8078    8.4364 H   0  0  0  0  0  0  0  0  0  0  0  0
  -12.7043  -10.3725    8.6710 H   0  0  0  0  0  0  0  0  0  0  0  0
  -11.2113   -9.5701   10.4580 H   0  0  0  0  0  0  0  0  0  0  0  0
   -9.1849  -16.1602   17.7083 H   0  0  0  0  0  0  0  0  0  0  0  0
   -8.0620  -14.8886   18.1603 H   0  0  0  0  0  0  0  0  0  0  0  0
   -8.5877  -14.5300   20.0706 H   0  0  0  0  0  0  0  0  0  0  0  0
   -9.5759  -15.9472   20.0028 H   0  0  0  0  0  0  0  0  0  0  0  0
   -6.1716  -19.0087   22.1345 H   0  0  0  0  0  0  0  0  0  0  0  0
   -8.0019  -20.4318   21.5597 H   0  0  0  0  0  0  0  0  0  0  0  0
   -9.7460  -21.9552   22.8860 H   0  0  0  0  0  0  0  0  0  0  0  0
  -11.1578  -20.0252   24.0521 H   0  0  0  0  0  0  0  0  0  0  0  0
   -5.4493  -17.3428   20.3478 H   0  0  0  0  0  0  0  0  0  0  0  0
   -6.6424  -18.5865   20.2987 H   0  0  0  0  0  0  0  0  0  0  0  0
   -7.3437  -18.3512   17.9432 H   0  0  0  0  0  0  0  0  0  0  0  0
   -5.7438  -17.5940   18.4106 H   0  0  0  0  0  0  0  0  0  0  0  0
  1  2  2  0
  2  3  1  0
  3  4  1  0
  4  5  1  0
  5  6  2  0
  6  7  1  0
  7  8  2  0
  8  9  1  0
  9 10  2  0
 10 11  1  0
 11 12  2  0
 12 13  1  0
  2 14  1  0
 14 15  1  0
 15 16  1  0
 16 17  1  0
 17 18  1  0
 18 19  2  0
 19 20  1  0
 20 21  2  0
 21 22  1  0
 22 23  2  0
 17 24  1  0
 24 25  1  0
 13  5  1  0
 25 14  1  0
 12  7  1  0
 23 18  1  0
  3 26  1  0
  4 27  1  0
  4 28  1  0
  8 29  1  0
  9 30  1  0
 10 31  1  0
 11 32  1  0
 15 33  1  0
 15 34  1  0
 16 35  1  0
 16 36  1  0
 19 37  1  0
 20 38  1  0
 21 39  1  0
 22 40  1  0
 24 41  1  0
 24 42  1  0
 25 43  1  0
 25 44  1  0
M  END
>  <Energy>  (1138) 
768.13668944099413

>  <compound_id>  (1138) 
11046

>  <target_id>  (1138) 
1

>  <reference_id>  (1138) 
69

>  <inspiration_ids>  (1138) 
[69, 82]

>  <energy_score>  (1138) 
717.975683786992

>  <distance_score>  (1138) 
11.74026982230189

>  <path>  (1138) 
/opt/xchem-fragalysis-2/maxwin/BulkDock/SCRATCH/511020/C11046-P69/C11046-P69.minimised.mol

>  <scratch_subdir>  (1138) 
/opt/xchem-fragalysis-2/maxwin/BulkDock/SCRATCH/511020/C11046-P69

>  <fragmenstein_runtime>  (1138) 
44.762059450149536

>  <fragmenstein_outcome>  (1138) 
too moved

>  <fragmenstein_mode>  (1138) 
expansion

>  <fragmenstein_error>  (1138) 


$$$$
C11046-P82
     RDKit          3D

 44 47  0  0  0  0  0  0  0  0999 V2000
   -7.4268  -12.9506   19.8522 O   0  0  0  0  0  0  0  0  0  0  0  0
   -7.9983  -13.4733   19.0871 C   0  0  0  0  0  0  0  0  0  0  0  0
   -8.0157  -12.5689   17.5615 N   0  0  0  0  0  0  0  0  0  0  0  0
   -7.1260  -10.9475   16.9760 C   0  0  0  0  0  0  0  0  0  0  0  0
   -7.2199   -9.9955   15.1291 C   0  0  0  0  0  0  0  0  0  0  0  0
   -6.2451  -10.1906   13.8879 N   0  0  0  0  0  0  0  0  0  0  0  0
   -5.9461   -8.7728   13.1280 C   0  0  0  0  0  0  0  0  0  0  0  0
   -4.8529   -8.2224   12.3840 C   0  0  0  0  0  0  0  0  0  0  0  0
   -4.6881   -6.8327   12.3635 C   0  0  0  0  0  0  0  0  0  0  0  0
   -5.5390   -6.0275   13.1206 C   0  0  0  0  0  0  0  0  0  0  0  0
   -6.6980   -6.5209   13.7258 C   0  0  0  0  0  0  0  0  0  0  0  0
   -6.9416   -7.9278   13.5697 C   0  0  0  0  0  0  0  0  0  0  0  0
   -8.4374   -9.3007   13.9444 S   0  0  0  0  0  0  0  0  0  0  0  0
   -8.7232  -15.2149   19.2609 N   0  0  0  0  0  0  0  0  0  0  0  0
  -10.5783  -15.8429   19.9228 C   0  0  0  0  0  0  0  0  0  0  0  0
  -11.3844  -15.7963   22.0692 C   0  0  0  0  0  0  0  0  0  0  0  0
  -10.0679  -16.5825   23.6159 N   0  0  0  0  0  0  0  0  0  0  0  0
  -10.8568  -17.2005   24.8632 C   0  0  0  0  0  0  0  0  0  0  0  0
  -12.1645  -16.5866   25.0643 C   0  0  0  0  0  0  0  0  0  0  0  0
  -13.3218  -17.3172   25.0909 C   0  0  0  0  0  0  0  0  0  0  0  0
  -13.1226  -18.6612   24.9676 C   0  0  0  0  0  0  0  0  0  0  0  0
  -11.7921  -19.2216   25.2482 C   0  0  0  0  0  0  0  0  0  0  0  0
  -10.6821  -18.4420   25.3521 N   0  0  0  0  0  0  0  0  0  0  0  0
   -8.2217  -16.9481   22.5519 C   0  0  0  0  0  0  0  0  0  0  0  0
   -8.3865  -16.3438   20.7275 C   0  0  0  0  0  0  0  0  0  0  0  0
   -8.4304  -13.0859   16.9367 H   0  0  0  0  0  0  0  0  0  0  0  0
   -7.7911  -11.5334   16.2781 H   0  0  0  0  0  0  0  0  0  0  0  0
   -6.0429  -11.0625   17.1175 H   0  0  0  0  0  0  0  0  0  0  0  0
   -4.0758   -8.8580   11.9779 H   0  0  0  0  0  0  0  0  0  0  0  0
   -3.8024   -6.4163   11.8934 H   0  0  0  0  0  0  0  0  0  0  0  0
   -5.2746   -5.0115   13.3572 H   0  0  0  0  0  0  0  0  0  0  0  0
   -7.3488   -5.8755   14.3102 H   0  0  0  0  0  0  0  0  0  0  0  0
  -11.1113  -16.5901   19.2600 H   0  0  0  0  0  0  0  0  0  0  0  0
   -9.9478  -16.5794   20.0625 H   0  0  0  0  0  0  0  0  0  0  0  0
  -11.3178  -14.7758   22.4943 H   0  0  0  0  0  0  0  0  0  0  0  0
  -12.3935  -16.2174   22.2434 H   0  0  0  0  0  0  0  0  0  0  0  0
  -12.3631  -15.5400   24.9297 H   0  0  0  0  0  0  0  0  0  0  0  0
  -14.3034  -16.8656   25.0669 H   0  0  0  0  0  0  0  0  0  0  0  0
  -13.9997  -19.2797   24.8726 H   0  0  0  0  0  0  0  0  0  0  0  0
  -11.6488  -20.2893   25.3380 H   0  0  0  0  0  0  0  0  0  0  0  0
   -8.1617  -18.0458   22.3234 H   0  0  0  0  0  0  0  0  0  0  0  0
   -7.3346  -16.8649   23.1559 H   0  0  0  0  0  0  0  0  0  0  0  0
   -7.3102  -16.7345   20.5037 H   0  0  0  0  0  0  0  0  0  0  0  0
   -7.8852  -15.5228   20.9689 H   0  0  0  0  0  0  0  0  0  0  0  0
  1  2  2  0
  2  3  1  0
  3  4  1  0
  4  5  1  0
  5  6  2  0
  6  7  1  0
  7  8  2  0
  8  9  1  0
  9 10  2  0
 10 11  1  0
 11 12  2  0
 12 13  1  0
  2 14  1  0
 14 15  1  0
 15 16  1  0
 16 17  1  0
 17 18  1  0
 18 19  2  0
 19 20  1  0
 20 21  2  0
 21 22  1  0
 22 23  2  0
 17 24  1  0
 24 25  1  0
 13  5  1  0
 25 14  1  0
 12  7  1  0
 23 18  1  0
  3 26  1  0
  4 27  1  0
  4 28  1  0
  8 29  1  0
  9 30  1  0
 10 31  1  0
 11 32  1  0
 15 33  1  0
 15 34  1  0
 16 35  1  0
 16 36  1  0
 19 37  1  0
 20 38  1  0
 21 39  1  0
 22 40  1  0
 24 41  1  0
 24 42  1  0
 25 43  1  0
 25 44  1  0
M  END
>  <Energy>  (1139) 
1396.5935955258788

>  <compound_id>  (1139) 
11046

>  <target_id>  (1139) 
1

>  <reference_id>  (1139) 
82

>  <inspiration_ids>  (1139) 
[69, 82]

>  <energy_score>  (1139) 
1346.4325898719128

>  <distance_score>  (1139) 
9.61630785424508

>  <path>  (1139) 
/opt/xchem-fragalysis-2/maxwin/BulkDock/SCRATCH/511020/C11046-P82/C11046-P82.minimised.mol

>  <scratch_subdir>  (1139) 
/opt/xchem-fragalysis-2/maxwin/BulkDock/SCRATCH/511020/C11046-P82

>  <fragmenstein_runtime>  (1139) 
32.41404461860657

>  <fragmenstein_outcome>  (1139) 
too moved

>  <fragmenstein_mode>  (1139) 
expansion

>  <fragmenstein_error>  (1139) 


$$$$
C52438-P69
     RDKit          3D

 43 46  0  0  0  0  0  0  0  0999 V2000
   -9.3037  -15.3072   19.6771 O   0  0  0  0  0  0  0  0  0  0  0  0
   -9.0749  -14.2378   20.1515 C   0  0  0  0  0  0  0  0  0  0  0  0
   -8.8440  -12.8282   19.0755 C   0  0  0  0  0  0  0  0  0  0  0  0
   -9.4576  -12.2497   17.8811 O   0  0  0  0  0  0  0  0  0  0  0  0
   -8.3628  -11.9705   16.5062 C   0  0  0  0  0  0  0  0  0  0  0  0
   -8.8108  -10.7896   14.9793 C   0  0  0  0  0  0  0  0  0  0  0  0
   -9.4671   -9.5441   14.9274 N   0  0  0  0  0  0  0  0  0  0  0  0
   -8.8244   -8.3060   14.2359 C   0  0  0  0  0  0  0  0  0  0  0  0
   -8.9632   -6.4814   14.4784 C   0  0  0  0  0  0  0  0  0  0  0  0
   -8.2708   -5.3262   13.5483 C   0  0  0  0  0  0  0  0  0  0  0  0
   -7.1958   -5.9434   12.4177 C   0  0  0  0  0  0  0  0  0  0  0  0
   -6.9535   -7.8784   12.1710 C   0  0  0  0  0  0  0  0  0  0  0  0
   -7.8688   -8.8670   13.3491 C   0  0  0  0  0  0  0  0  0  0  0  0
   -8.7045  -10.7795   13.3391 S   0  0  0  0  0  0  0  0  0  0  0  0
   -8.8426  -13.8434   21.5221 N   0  0  0  0  0  0  0  0  0  0  0  0
   -8.9598  -14.5170   22.6236 C   0  0  0  0  0  0  0  0  0  0  0  0
  -10.2038  -15.9454   22.2281 C   0  0  0  0  0  0  0  0  0  0  0  0
  -10.6596  -16.3321   23.5628 N   0  0  0  0  0  0  0  0  0  0  0  0
  -12.0000  -16.2289   23.7969 C   0  0  0  0  0  0  0  0  0  0  0  0
  -12.5281  -15.5564   24.7970 N   0  0  0  0  0  0  0  0  0  0  0  0
  -13.9084  -15.6125   24.7483 C   0  0  0  0  0  0  0  0  0  0  0  0
  -14.4356  -16.3775   23.7349 C   0  0  0  0  0  0  0  0  0  0  0  0
  -13.1675  -17.0377   22.7979 S   0  0  0  0  0  0  0  0  0  0  0  0
   -9.7645  -15.5592   24.3911 C   0  0  0  0  0  0  0  0  0  0  0  0
   -8.5911  -14.9399   23.1451 C   0  0  0  0  0  0  0  0  0  0  0  0
   -9.3722  -12.1835   19.6757 H   0  0  0  0  0  0  0  0  0  0  0  0
   -7.7897  -12.5794   19.0556 H   0  0  0  0  0  0  0  0  0  0  0  0
   -7.9859  -12.9723   16.4354 H   0  0  0  0  0  0  0  0  0  0  0  0
   -7.6254  -11.4632   17.1654 H   0  0  0  0  0  0  0  0  0  0  0  0
   -9.7872   -6.0028   15.0226 H   0  0  0  0  0  0  0  0  0  0  0  0
   -8.4635   -4.2824   13.7340 H   0  0  0  0  0  0  0  0  0  0  0  0
   -6.5186   -5.4445   11.7042 H   0  0  0  0  0  0  0  0  0  0  0  0
   -6.0871   -8.2023   11.5625 H   0  0  0  0  0  0  0  0  0  0  0  0
  -10.1239  -14.0430   22.6238 H   0  0  0  0  0  0  0  0  0  0  0  0
   -9.1413  -13.3763   23.3800 H   0  0  0  0  0  0  0  0  0  0  0  0
   -9.6442  -16.7556   21.7411 H   0  0  0  0  0  0  0  0  0  0  0  0
  -10.9803  -15.5496   21.5614 H   0  0  0  0  0  0  0  0  0  0  0  0
  -14.4881  -15.0792   25.4920 H   0  0  0  0  0  0  0  0  0  0  0  0
  -15.4731  -16.5776   23.5083 H   0  0  0  0  0  0  0  0  0  0  0  0
   -9.1886  -16.1816   25.0822 H   0  0  0  0  0  0  0  0  0  0  0  0
  -10.2005  -14.6917   24.9032 H   0  0  0  0  0  0  0  0  0  0  0  0
   -7.9197  -15.9435   22.8327 H   0  0  0  0  0  0  0  0  0  0  0  0
   -7.6642  -14.4610   23.8359 H   0  0  0  0  0  0  0  0  0  0  0  0
  1  2  2  0
  2  3  1  0
  3  4  1  0
  4  5  1  0
  5  6  1  0
  6  7  2  0
  7  8  1  0
  8  9  2  0
  9 10  1  0
 10 11  2  0
 11 12  1  0
 12 13  2  0
 13 14  1  0
  2 15  1  0
 15 16  1  0
 16 17  1  0
 17 18  1  0
 18 19  1  0
 19 20  2  0
 20 21  1  0
 21 22  2  0
 22 23  1  0
 18 24  1  0
 24 25  1  0
 14  6  1  0
 25 15  1  0
 13  8  1  0
 23 19  1  0
  3 26  1  0
  3 27  1  0
  5 28  1  0
  5 29  1  0
  9 30  1  0
 10 31  1  0
 11 32  1  0
 12 33  1  0
 16 34  1  0
 16 35  1  0
 17 36  1  0
 17 37  1  0
 21 38  1  0
 22 39  1  0
 24 40  1  0
 24 41  1  0
 25 42  1  0
 25 43  1  0
M  END
>  <Energy>  (1140) 
1378.1958727426111

>  <compound_id>  (1140) 
52438

>  <target_id>  (1140) 
1

>  <reference_id>  (1140) 
69

>  <inspiration_ids>  (1140) 
[69, 82]

>  <energy_score>  (1140) 
1143.6932062305198

>  <distance_score>  (1140) 
11.755092464865506

>  <path>  (1140) 
/opt/xchem-fragalysis-2/maxwin/BulkDock/SCRATCH/511020/C52438-P69/C52438-P69.minimised.mol

>  <scratch_subdir>  (1140) 
/opt/xchem-fragalysis-2/maxwin/BulkDock/SCRATCH/511020/C52438-P69

>  <fragmenstein_runtime>  (1140) 
32.132118940353394

>  <fragmenstein_outcome>  (1140) 
too moved

>  <fragmenstein_mode>  (1140) 
expansion

>  <fragmenstein_error>  (1140) 


$$$$
C52438-P82
     RDKit          3D

 43 46  0  0  0  0  0  0  0  0999 V2000
   -7.8192  -18.8228   14.9813 O   0  0  0  0  0  0  0  0  0  0  0  0
   -7.6971  -18.3314   16.0173 C   0  0  0  0  0  0  0  0  0  0  0  0
   -6.7488  -17.1014   16.2207 C   0  0  0  0  0  0  0  0  0  0  0  0
   -7.1609  -15.7501   15.9570 O   0  0  0  0  0  0  0  0  0  0  0  0
   -7.6375  -15.5090   14.6007 C   0  0  0  0  0  0  0  0  0  0  0  0
   -8.2075  -13.7970   13.9292 C   0  0  0  0  0  0  0  0  0  0  0  0
   -7.5340  -12.8316   13.1978 N   0  0  0  0  0  0  0  0  0  0  0  0
   -7.9945  -11.5526   13.5866 C   0  0  0  0  0  0  0  0  0  0  0  0
   -7.2930  -10.2361   13.7948 C   0  0  0  0  0  0  0  0  0  0  0  0
   -7.9386   -9.0709   13.7894 C   0  0  0  0  0  0  0  0  0  0  0  0
   -9.2318   -9.1145   13.9129 C   0  0  0  0  0  0  0  0  0  0  0  0
   -9.6771  -10.2811   14.3027 C   0  0  0  0  0  0  0  0  0  0  0  0
   -9.2069  -11.5537   14.0385 C   0  0  0  0  0  0  0  0  0  0  0  0
   -9.6273  -13.1642   14.1659 S   0  0  0  0  0  0  0  0  0  0  0  0
   -8.4167  -18.5954   17.4512 N   0  0  0  0  0  0  0  0  0  0  0  0
   -9.2624  -19.4899   17.9406 C   0  0  0  0  0  0  0  0  0  0  0  0
   -9.2966  -20.0777   19.7553 C   0  0  0  0  0  0  0  0  0  0  0  0
  -10.7111  -19.8746   20.0218 N   0  0  0  0  0  0  0  0  0  0  0  0
  -11.4692  -20.5166   20.9406 C   0  0  0  0  0  0  0  0  0  0  0  0
  -12.7893  -20.5053   20.8982 N   0  0  0  0  0  0  0  0  0  0  0  0
  -13.3179  -21.1263   22.0100 C   0  0  0  0  0  0  0  0  0  0  0  0
  -12.3985  -21.6636   22.8774 C   0  0  0  0  0  0  0  0  0  0  0  0
  -10.8260  -21.3755   22.2770 S   0  0  0  0  0  0  0  0  0  0  0  0
  -11.3134  -19.5951   18.7427 C   0  0  0  0  0  0  0  0  0  0  0  0
   -9.9230  -19.8234   17.6420 C   0  0  0  0  0  0  0  0  0  0  0  0
   -5.8532  -17.3018   15.6177 H   0  0  0  0  0  0  0  0  0  0  0  0
   -6.3971  -17.1454   17.2538 H   0  0  0  0  0  0  0  0  0  0  0  0
   -6.8270  -15.9486   14.0146 H   0  0  0  0  0  0  0  0  0  0  0  0
   -8.2684  -16.3152   14.2369 H   0  0  0  0  0  0  0  0  0  0  0  0
   -6.1976  -10.2564   13.7223 H   0  0  0  0  0  0  0  0  0  0  0  0
   -7.4558   -8.1466   13.8815 H   0  0  0  0  0  0  0  0  0  0  0  0
   -9.7836   -8.2566   14.1920 H   0  0  0  0  0  0  0  0  0  0  0  0
  -10.5604  -10.1762   14.8813 H   0  0  0  0  0  0  0  0  0  0  0  0
   -9.4016  -18.4348   18.6082 H   0  0  0  0  0  0  0  0  0  0  0  0
   -8.2070  -20.1380   18.0021 H   0  0  0  0  0  0  0  0  0  0  0  0
   -9.0018  -21.1349   19.7514 H   0  0  0  0  0  0  0  0  0  0  0  0
   -8.6244  -19.4384   20.3375 H   0  0  0  0  0  0  0  0  0  0  0  0
  -14.3906  -21.1482   22.1459 H   0  0  0  0  0  0  0  0  0  0  0  0
  -12.5708  -22.1801   23.8097 H   0  0  0  0  0  0  0  0  0  0  0  0
  -11.6761  -18.5646   18.6530 H   0  0  0  0  0  0  0  0  0  0  0  0
  -12.0707  -20.3194   18.4191 H   0  0  0  0  0  0  0  0  0  0  0  0
  -10.5217  -19.5338   16.6244 H   0  0  0  0  0  0  0  0  0  0  0  0
   -9.8213  -21.0183   17.2763 H   0  0  0  0  0  0  0  0  0  0  0  0
  1  2  2  0
  2  3  1  0
  3  4  1  0
  4  5  1  0
  5  6  1  0
  6  7  2  0
  7  8  1  0
  8  9  2  0
  9 10  1  0
 10 11  2  0
 11 12  1  0
 12 13  2  0
 13 14  1  0
  2 15  1  0
 15 16  1  0
 16 17  1  0
 17 18  1  0
 18 19  1  0
 19 20  2  0
 20 21  1  0
 21 22  2  0
 22 23  1  0
 18 24  1  0
 24 25  1  0
 14  6  1  0
 25 15  1  0
 13  8  1  0
 23 19  1  0
  3 26  1  0
  3 27  1  0
  5 28  1  0
  5 29  1  0
  9 30  1  0
 10 31  1  0
 11 32  1  0
 12 33  1  0
 16 34  1  0
 16 35  1  0
 17 36  1  0
 17 37  1  0
 21 38  1  0
 22 39  1  0
 24 40  1  0
 24 41  1  0
 25 42  1  0
 25 43  1  0
M  END
>  <Energy>  (1141) 
990.24022035864425

>  <compound_id>  (1141) 
52438

>  <target_id>  (1141) 
1

>  <reference_id>  (1141) 
82

>  <inspiration_ids>  (1141) 
[69, 82]

>  <energy_score>  (1141) 
755.7375538465586

>  <distance_score>  (1141) 
13.3668317586377

>  <path>  (1141) 
/opt/xchem-fragalysis-2/maxwin/BulkDock/SCRATCH/511020/C52438-P82/C52438-P82.minimised.mol

>  <scratch_subdir>  (1141) 
/opt/xchem-fragalysis-2/maxwin/BulkDock/SCRATCH/511020/C52438-P82

>  <fragmenstein_runtime>  (1141) 
24.613195657730103

>  <fragmenstein_outcome>  (1141) 
too moved

>  <fragmenstein_mode>  (1141) 
expansion

>  <fragmenstein_error>  (1141) 


$$$$
C11047-P69
     RDKit          3D

 41 44  0  0  0  0  0  0  0  0999 V2000
  -11.1840   -9.9729   14.0134 O   0  0  0  0  0  0  0  0  0  0  0  0
  -12.0240  -10.3928   14.7057 C   0  0  0  0  0  0  0  0  0  0  0  0
  -13.4294  -10.1025   14.7378 N   0  0  0  0  0  0  0  0  0  0  0  0
  -14.2132   -9.3115   13.8976 C   0  0  0  0  0  0  0  0  0  0  0  0
  -14.0459   -9.5886   12.5256 C   0  0  0  0  0  0  0  0  0  0  0  0
  -14.4089   -8.6938   11.5156 C   0  0  0  0  0  0  0  0  0  0  0  0
  -14.9139   -7.4449   11.8864 C   0  0  0  0  0  0  0  0  0  0  0  0
  -15.3460   -6.4707   11.0052 N   0  0  0  0  0  0  0  0  0  0  0  0
  -15.9266   -5.5209   11.7003 C   0  0  0  0  0  0  0  0  0  0  0  0
  -15.6601   -5.5449   13.3912 S   0  0  0  0  0  0  0  0  0  0  0  0
  -15.0323   -7.1447   13.2504 C   0  0  0  0  0  0  0  0  0  0  0  0
  -14.6838   -8.0583   14.2787 C   0  0  0  0  0  0  0  0  0  0  0  0
  -11.8624  -11.5383   15.7875 N   0  0  0  0  0  0  0  0  0  0  0  0
  -11.4021  -11.2784   17.6583 C   0  0  0  0  0  0  0  0  0  0  0  0
  -10.0501  -12.4580   18.7029 C   0  0  0  0  0  0  0  0  0  0  0  0
  -10.4105  -14.3736   19.1528 N   0  0  0  0  0  0  0  0  0  0  0  0
  -11.5968  -15.9860   19.5224 C   0  0  0  0  0  0  0  0  0  0  0  0
  -11.2405  -17.1773   18.0669 C   0  0  0  0  0  0  0  0  0  0  0  0
  -12.3251  -18.1688   17.0700 C   0  0  0  0  0  0  0  0  0  0  0  0
  -12.8630  -19.2378   18.0739 C   0  0  0  0  0  0  0  0  0  0  0  0
  -12.1205  -19.0771   19.1486 C   0  0  0  0  0  0  0  0  0  0  0  0
  -11.3321  -17.5636   19.4622 N   0  0  0  0  0  0  0  0  0  0  0  0
  -10.5204  -12.9015   17.8142 C   0  0  0  0  0  0  0  0  0  0  0  0
  -10.8191  -12.3099   16.0654 C   0  0  0  0  0  0  0  0  0  0  0  0
  -13.8480  -10.5848   15.5232 H   0  0  0  0  0  0  0  0  0  0  0  0
  -13.5767  -10.5270   12.2260 H   0  0  0  0  0  0  0  0  0  0  0  0
  -14.2858   -8.9559   10.4701 H   0  0  0  0  0  0  0  0  0  0  0  0
  -16.4919   -4.7257   11.2333 H   0  0  0  0  0  0  0  0  0  0  0  0
  -14.7160   -7.7582   15.3205 H   0  0  0  0  0  0  0  0  0  0  0  0
  -12.4075  -11.1976   18.0713 H   0  0  0  0  0  0  0  0  0  0  0  0
  -10.9315  -10.4664   18.1670 H   0  0  0  0  0  0  0  0  0  0  0  0
   -8.8871  -12.4815   18.2393 H   0  0  0  0  0  0  0  0  0  0  0  0
   -9.3700  -11.8866   19.3556 H   0  0  0  0  0  0  0  0  0  0  0  0
  -10.3141  -17.8130   17.9750 H   0  0  0  0  0  0  0  0  0  0  0  0
  -12.5602  -17.9206   16.0429 H   0  0  0  0  0  0  0  0  0  0  0  0
  -13.3597  -20.1876   17.8377 H   0  0  0  0  0  0  0  0  0  0  0  0
  -11.8540  -19.9031   19.8108 H   0  0  0  0  0  0  0  0  0  0  0  0
  -10.6434  -13.8389   17.6737 H   0  0  0  0  0  0  0  0  0  0  0  0
  -10.9546  -13.2969   16.8911 H   0  0  0  0  0  0  0  0  0  0  0  0
  -11.0156  -12.9960   15.2184 H   0  0  0  0  0  0  0  0  0  0  0  0
   -9.9368  -11.9702   15.4611 H   0  0  0  0  0  0  0  0  0  0  0  0
  1  2  2  0
  2  3  1  0
  3  4  1  0
  4  5  2  0
  5  6  1  0
  6  7  2  0
  7  8  1  0
  8  9  2  0
  9 10  1  0
 10 11  1  0
 11 12  2  0
  2 13  1  0
 13 14  1  0
 14 15  1  0
 15 16  1  0
 16 17  1  0
 17 18  2  0
 18 19  1  0
 19 20  2  0
 20 21  1  0
 21 22  2  0
 16 23  1  0
 23 24  1  0
 12  4  1  0
 24 13  1  0
 11  7  1  0
 22 17  1  0
  3 25  1  0
  5 26  1  0
  6 27  1  0
  9 28  1  0
 12 29  1  0
 14 30  1  0
 14 31  1  0
 15 32  1  0
 15 33  1  0
 18 34  1  0
 19 35  1  0
 20 36  1  0
 21 37  1  0
 23 38  1  0
 23 39  1  0
 24 40  1  0
 24 41  1  0
M  END
>  <Energy>  (1142) 
1709.1001688929696

>  <compound_id>  (1142) 
11047

>  <target_id>  (1142) 
1

>  <reference_id>  (1142) 
69

>  <inspiration_ids>  (1142) 
[69, 82]

>  <energy_score>  (1142) 
1606.1987513851877

>  <distance_score>  (1142) 
13.673586676463684

>  <path>  (1142) 
/opt/xchem-fragalysis-2/maxwin/BulkDock/SCRATCH/511020/C11047-P69/C11047-P69.minimised.mol

>  <scratch_subdir>  (1142) 
/opt/xchem-fragalysis-2/maxwin/BulkDock/SCRATCH/511020/C11047-P69

>  <fragmenstein_runtime>  (1142) 
33.7845983505249

>  <fragmenstein_outcome>  (1142) 
too moved

>  <fragmenstein_mode>  (1142) 
expansion

>  <fragmenstein_error>  (1142) 


$$$$
C11047-P82
     RDKit          3D

 41 44  0  0  0  0  0  0  0  0999 V2000
  -13.1688   -7.2141   23.0490 O   0  0  0  0  0  0  0  0  0  0  0  0
  -12.0331   -7.3728   23.3549 C   0  0  0  0  0  0  0  0  0  0  0  0
  -10.8028   -6.3817   23.1168 N   0  0  0  0  0  0  0  0  0  0  0  0
  -10.7240   -5.0681   22.3744 C   0  0  0  0  0  0  0  0  0  0  0  0
  -11.7925   -4.7247   21.5230 C   0  0  0  0  0  0  0  0  0  0  0  0
  -11.5925   -4.0503   20.2828 C   0  0  0  0  0  0  0  0  0  0  0  0
  -10.2970   -3.7035   19.8412 C   0  0  0  0  0  0  0  0  0  0  0  0
   -9.9520   -3.1995   18.5868 N   0  0  0  0  0  0  0  0  0  0  0  0
   -8.6504   -3.0408   18.5164 C   0  0  0  0  0  0  0  0  0  0  0  0
   -7.7682   -3.4510   19.9303 S   0  0  0  0  0  0  0  0  0  0  0  0
   -9.2400   -3.9226   20.7328 C   0  0  0  0  0  0  0  0  0  0  0  0
   -9.4403   -4.5264   22.0333 C   0  0  0  0  0  0  0  0  0  0  0  0
  -11.2944   -8.6315   24.2841 N   0  0  0  0  0  0  0  0  0  0  0  0
  -10.5496  -10.3310   23.7284 C   0  0  0  0  0  0  0  0  0  0  0  0
  -10.3556  -11.6831   25.1506 C   0  0  0  0  0  0  0  0  0  0  0  0
  -11.4859  -12.6212   26.0941 N   0  0  0  0  0  0  0  0  0  0  0  0
  -11.4741  -14.1202   27.0533 C   0  0  0  0  0  0  0  0  0  0  0  0
  -12.3809  -14.4889   28.2057 C   0  0  0  0  0  0  0  0  0  0  0  0
  -12.5617  -15.9853   29.0957 C   0  0  0  0  0  0  0  0  0  0  0  0
  -12.0084  -17.6357   28.6759 C   0  0  0  0  0  0  0  0  0  0  0  0
  -10.7307  -17.0460   27.3333 C   0  0  0  0  0  0  0  0  0  0  0  0
  -10.5960  -15.4297   26.8329 N   0  0  0  0  0  0  0  0  0  0  0  0
  -12.3639  -11.4007   26.0788 C   0  0  0  0  0  0  0  0  0  0  0  0
  -11.8302   -9.7279   25.0024 C   0  0  0  0  0  0  0  0  0  0  0  0
   -9.9675   -6.7632   23.5770 H   0  0  0  0  0  0  0  0  0  0  0  0
  -12.7898   -5.1182   21.7227 H   0  0  0  0  0  0  0  0  0  0  0  0
  -12.4389   -3.8900   19.6196 H   0  0  0  0  0  0  0  0  0  0  0  0
   -8.1594   -2.6642   17.6282 H   0  0  0  0  0  0  0  0  0  0  0  0
   -8.5632   -4.7925   22.6211 H   0  0  0  0  0  0  0  0  0  0  0  0
   -9.5448  -10.2056   23.3162 H   0  0  0  0  0  0  0  0  0  0  0  0
  -11.3349  -10.8734   23.1752 H   0  0  0  0  0  0  0  0  0  0  0  0
  -10.4859  -10.9286   25.8533 H   0  0  0  0  0  0  0  0  0  0  0  0
   -9.3966  -11.6533   25.6426 H   0  0  0  0  0  0  0  0  0  0  0  0
  -13.0434  -13.7090   28.5874 H   0  0  0  0  0  0  0  0  0  0  0  0
  -13.1975  -15.8294   29.9671 H   0  0  0  0  0  0  0  0  0  0  0  0
  -12.2790  -18.6031   28.9295 H   0  0  0  0  0  0  0  0  0  0  0  0
   -9.7981  -17.5408   27.0679 H   0  0  0  0  0  0  0  0  0  0  0  0
  -13.3786  -11.7074   25.7825 H   0  0  0  0  0  0  0  0  0  0  0  0
  -12.3918  -11.1280   27.1501 H   0  0  0  0  0  0  0  0  0  0  0  0
  -12.2765   -8.8081   24.9437 H   0  0  0  0  0  0  0  0  0  0  0  0
  -11.2615   -9.4546   25.9553 H   0  0  0  0  0  0  0  0  0  0  0  0
  1  2  2  0
  2  3  1  0
  3  4  1  0
  4  5  2  0
  5  6  1  0
  6  7  2  0
  7  8  1  0
  8  9  2  0
  9 10  1  0
 10 11  1  0
 11 12  2  0
  2 13  1  0
 13 14  1  0
 14 15  1  0
 15 16  1  0
 16 17  1  0
 17 18  2  0
 18 19  1  0
 19 20  2  0
 20 21  1  0
 21 22  2  0
 16 23  1  0
 23 24  1  0
 12  4  1  0
 24 13  1  0
 11  7  1  0
 22 17  1  0
  3 25  1  0
  5 26  1  0
  6 27  1  0
  9 28  1  0
 12 29  1  0
 14 30  1  0
 14 31  1  0
 15 32  1  0
 15 33  1  0
 18 34  1  0
 19 35  1  0
 20 36  1  0
 21 37  1  0
 23 38  1  0
 23 39  1  0
 24 40  1  0
 24 41  1  0
M  END
>  <Energy>  (1143) 
925.09336268638685

>  <compound_id>  (1143) 
11047

>  <target_id>  (1143) 
1

>  <reference_id>  (1143) 
82

>  <inspiration_ids>  (1143) 
[69, 82]

>  <energy_score>  (1143) 
822.1919451785839

>  <distance_score>  (1143) 
13.100341730012175

>  <path>  (1143) 
/opt/xchem-fragalysis-2/maxwin/BulkDock/SCRATCH/511020/C11047-P82/C11047-P82.minimised.mol

>  <scratch_subdir>  (1143) 
/opt/xchem-fragalysis-2/maxwin/BulkDock/SCRATCH/511020/C11047-P82

>  <fragmenstein_runtime>  (1143) 
23.853198766708374

>  <fragmenstein_outcome>  (1143) 
too moved

>  <fragmenstein_mode>  (1143) 
expansion

>  <fragmenstein_error>  (1143) 


$$$$
C11048-P69
     RDKit          3D

 49 52  0  0  0  0  0  0  0  0999 V2000
   -9.9441  -12.5779   18.5752 O   0  0  0  0  0  0  0  0  0  0  0  0
   -8.8859  -12.6407   19.1524 C   0  0  0  0  0  0  0  0  0  0  0  0
   -7.3605  -11.7072   17.9551 C   0  0  0  0  0  0  0  0  0  0  0  0
   -6.4805  -10.4232   16.3497 C   0  0  0  0  0  0  0  0  0  0  0  0
   -5.9696  -10.1339   14.1833 C   0  0  0  0  0  0  0  0  0  0  0  0
   -5.3944   -8.5733   12.2205 S   0  0  0  0  0  0  0  0  0  0  0  0
   -6.2245   -7.7594   10.1153 C   0  0  0  0  0  0  0  0  0  0  0  0
   -7.2583   -7.7186    8.7713 N   0  0  0  0  0  0  0  0  0  0  0  0
   -7.8721   -6.1262    7.6900 C   0  0  0  0  0  0  0  0  0  0  0  0
   -8.9527   -5.7190    6.7272 C   0  0  0  0  0  0  0  0  0  0  0  0
   -9.1933   -4.4473    6.1753 C   0  0  0  0  0  0  0  0  0  0  0  0
   -8.5106   -3.3952    6.6757 C   0  0  0  0  0  0  0  0  0  0  0  0
   -7.6965   -3.6547    7.7581 C   0  0  0  0  0  0  0  0  0  0  0  0
   -7.4297   -4.9954    8.2595 C   0  0  0  0  0  0  0  0  0  0  0  0
   -6.6916   -5.6260    9.6257 S   0  0  0  0  0  0  0  0  0  0  0  0
   -8.9533  -13.4543   20.9341 N   0  0  0  0  0  0  0  0  0  0  0  0
  -10.7014  -14.1092   22.2136 C   0  0  0  0  0  0  0  0  0  0  0  0
  -11.0682  -16.0327   23.3174 C   0  0  0  0  0  0  0  0  0  0  0  0
   -9.8861  -17.8956   23.3475 N   0  0  0  0  0  0  0  0  0  0  0  0
  -10.3911  -19.7578   23.4407 C   0  0  0  0  0  0  0  0  0  0  0  0
  -11.5943  -20.3676   23.9995 C   0  0  0  0  0  0  0  0  0  0  0  0
  -12.1043  -21.7091   23.9076 C   0  0  0  0  0  0  0  0  0  0  0  0
  -11.4607  -22.6058   23.1433 C   0  0  0  0  0  0  0  0  0  0  0  0
  -10.3705  -22.0635   22.5511 C   0  0  0  0  0  0  0  0  0  0  0  0
   -9.8420  -20.7831   22.7321 N   0  0  0  0  0  0  0  0  0  0  0  0
   -8.2755  -17.2126   22.1088 C   0  0  0  0  0  0  0  0  0  0  0  0
   -8.5287  -15.5502   20.7280 C   0  0  0  0  0  0  0  0  0  0  0  0
   -7.4011  -11.0034   18.8159 H   0  0  0  0  0  0  0  0  0  0  0  0
   -6.4629  -12.2525   18.2728 H   0  0  0  0  0  0  0  0  0  0  0  0
   -6.6820   -9.4042   16.7216 H   0  0  0  0  0  0  0  0  0  0  0  0
   -5.4412  -10.5388   16.6667 H   0  0  0  0  0  0  0  0  0  0  0  0
   -4.9124  -10.4377   14.0467 H   0  0  0  0  0  0  0  0  0  0  0  0
   -5.9835  -11.1466   13.6868 H   0  0  0  0  0  0  0  0  0  0  0  0
   -9.7097   -6.4207    6.3630 H   0  0  0  0  0  0  0  0  0  0  0  0
   -9.9557   -4.3203    5.4118 H   0  0  0  0  0  0  0  0  0  0  0  0
   -8.6875   -2.3837    6.3286 H   0  0  0  0  0  0  0  0  0  0  0  0
   -7.3308   -2.7484    8.2365 H   0  0  0  0  0  0  0  0  0  0  0  0
  -11.3365  -13.7271   21.4102 H   0  0  0  0  0  0  0  0  0  0  0  0
  -11.2687  -13.4166   22.8395 H   0  0  0  0  0  0  0  0  0  0  0  0
  -12.0130  -16.1888   22.7421 H   0  0  0  0  0  0  0  0  0  0  0  0
  -11.6616  -16.0211   24.2474 H   0  0  0  0  0  0  0  0  0  0  0  0
  -12.3803  -19.8383   24.4273 H   0  0  0  0  0  0  0  0  0  0  0  0
  -13.0448  -21.9782   24.3754 H   0  0  0  0  0  0  0  0  0  0  0  0
  -11.8099  -23.6097   22.9643 H   0  0  0  0  0  0  0  0  0  0  0  0
   -9.8628  -22.6691   21.8217 H   0  0  0  0  0  0  0  0  0  0  0  0
   -7.5334  -16.8324   22.7977 H   0  0  0  0  0  0  0  0  0  0  0  0
   -7.6964  -18.0691   21.7244 H   0  0  0  0  0  0  0  0  0  0  0  0
   -8.3055  -15.7248   19.6415 H   0  0  0  0  0  0  0  0  0  0  0  0
   -9.4251  -15.8790   20.1017 H   0  0  0  0  0  0  0  0  0  0  0  0
  1  2  2  0
  2  3  1  0
  3  4  1  0
  4  5  1  0
  5  6  1  0
  6  7  1  0
  7  8  2  0
  8  9  1  0
  9 10  2  0
 10 11  1  0
 11 12  2  0
 12 13  1  0
 13 14  2  0
 14 15  1  0
  2 16  1  0
 16 17  1  0
 17 18  1  0
 18 19  1  0
 19 20  1  0
 20 21  2  0
 21 22  1  0
 22 23  2  0
 23 24  1  0
 24 25  2  0
 19 26  1  0
 26 27  1  0
 15  7  1  0
 27 16  1  0
 14  9  1  0
 25 20  1  0
  3 28  1  0
  3 29  1  0
  4 30  1  0
  4 31  1  0
  5 32  1  0
  5 33  1  0
 10 34  1  0
 11 35  1  0
 12 36  1  0
 13 37  1  0
 17 38  1  0
 17 39  1  0
 18 40  1  0
 18 41  1  0
 21 42  1  0
 22 43  1  0
 23 44  1  0
 24 45  1  0
 26 46  1  0
 26 47  1  0
 27 48  1  0
 27 49  1  0
M  END
>  <Energy>  (1144) 
2530.0758670785995

>  <compound_id>  (1144) 
11048

>  <target_id>  (1144) 
1

>  <reference_id>  (1144) 
69

>  <inspiration_ids>  (1144) 
[69, 82]

>  <energy_score>  (1144) 
2409.8462862741967

>  <distance_score>  (1144) 
6.92769313197073

>  <path>  (1144) 
/opt/xchem-fragalysis-2/maxwin/BulkDock/SCRATCH/511020/C11048-P69/C11048-P69.minimised.mol

>  <scratch_subdir>  (1144) 
/opt/xchem-fragalysis-2/maxwin/BulkDock/SCRATCH/511020/C11048-P69

>  <fragmenstein_runtime>  (1144) 
34.164238929748535

>  <fragmenstein_outcome>  (1144) 
too moved

>  <fragmenstein_mode>  (1144) 
expansion

>  <fragmenstein_error>  (1144) 


$$$$
C11048-P82
     RDKit          3D

 49 52  0  0  0  0  0  0  0  0999 V2000
   -7.3403  -12.9443   19.6050 O   0  0  0  0  0  0  0  0  0  0  0  0
   -7.9078  -13.4000   18.6744 C   0  0  0  0  0  0  0  0  0  0  0  0
   -7.8165  -12.1540   17.2089 C   0  0  0  0  0  0  0  0  0  0  0  0
   -6.5540  -10.6347   16.3673 C   0  0  0  0  0  0  0  0  0  0  0  0
   -6.1364  -10.1805   14.3109 C   0  0  0  0  0  0  0  0  0  0  0  0
   -4.9343   -8.9347   12.5910 S   0  0  0  0  0  0  0  0  0  0  0  0
   -5.5139   -7.4920   11.0043 C   0  0  0  0  0  0  0  0  0  0  0  0
   -6.5045   -7.3777    9.9824 N   0  0  0  0  0  0  0  0  0  0  0  0
   -7.0045   -5.7027    9.4403 C   0  0  0  0  0  0  0  0  0  0  0  0
   -8.1234   -4.7023    8.7138 C   0  0  0  0  0  0  0  0  0  0  0  0
   -8.1311   -3.7461    7.6481 C   0  0  0  0  0  0  0  0  0  0  0  0
   -6.9656   -3.4270    7.0425 C   0  0  0  0  0  0  0  0  0  0  0  0
   -5.8812   -3.9734    7.6775 C   0  0  0  0  0  0  0  0  0  0  0  0
   -5.9615   -5.1577    9.0050 C   0  0  0  0  0  0  0  0  0  0  0  0
   -4.2844   -6.0507   10.3924 S   0  0  0  0  0  0  0  0  0  0  0  0
   -8.5852  -15.1466   18.9006 N   0  0  0  0  0  0  0  0  0  0  0  0
   -8.6236  -15.9973   20.0668 C   0  0  0  0  0  0  0  0  0  0  0  0
   -7.6024  -17.1345   21.3396 C   0  0  0  0  0  0  0  0  0  0  0  0
   -7.4660  -18.6944   21.2368 N   0  0  0  0  0  0  0  0  0  0  0  0
   -8.1332  -19.7156   22.5591 C   0  0  0  0  0  0  0  0  0  0  0  0
   -8.9733  -21.2703   22.2777 C   0  0  0  0  0  0  0  0  0  0  0  0
  -10.1642  -22.1284   22.2035 C   0  0  0  0  0  0  0  0  0  0  0  0
  -11.2006  -21.6389   22.8521 C   0  0  0  0  0  0  0  0  0  0  0  0
  -10.8060  -20.4517   23.4141 C   0  0  0  0  0  0  0  0  0  0  0  0
   -9.4916  -19.3447   23.3274 N   0  0  0  0  0  0  0  0  0  0  0  0
   -7.0091  -18.5353   19.4829 C   0  0  0  0  0  0  0  0  0  0  0  0
   -7.6824  -16.8633   18.5049 C   0  0  0  0  0  0  0  0  0  0  0  0
   -7.6788  -13.2028   16.8045 H   0  0  0  0  0  0  0  0  0  0  0  0
   -8.5951  -12.1161   16.4929 H   0  0  0  0  0  0  0  0  0  0  0  0
   -5.5951  -10.8140   16.8676 H   0  0  0  0  0  0  0  0  0  0  0  0
   -6.8287   -9.6587   16.7852 H   0  0  0  0  0  0  0  0  0  0  0  0
   -5.6967  -11.0147   13.8073 H   0  0  0  0  0  0  0  0  0  0  0  0
   -7.2094   -9.8901   14.0912 H   0  0  0  0  0  0  0  0  0  0  0  0
   -9.1196   -4.6697    9.1847 H   0  0  0  0  0  0  0  0  0  0  0  0
   -9.0657   -3.2684    7.3632 H   0  0  0  0  0  0  0  0  0  0  0  0
   -6.8871   -2.7118    6.2372 H   0  0  0  0  0  0  0  0  0  0  0  0
   -4.8601   -3.6740    7.4036 H   0  0  0  0  0  0  0  0  0  0  0  0
   -8.3624  -15.1432   20.6055 H   0  0  0  0  0  0  0  0  0  0  0  0
   -9.6628  -16.2336   19.9596 H   0  0  0  0  0  0  0  0  0  0  0  0
   -7.7901  -16.9619   22.3668 H   0  0  0  0  0  0  0  0  0  0  0  0
   -6.5901  -16.9373   21.0107 H   0  0  0  0  0  0  0  0  0  0  0  0
   -8.3493  -21.9762   22.9407 H   0  0  0  0  0  0  0  0  0  0  0  0
  -10.0989  -23.1685   21.9126 H   0  0  0  0  0  0  0  0  0  0  0  0
  -12.1155  -22.1584   23.0803 H   0  0  0  0  0  0  0  0  0  0  0  0
  -11.5760  -20.2138   24.1588 H   0  0  0  0  0  0  0  0  0  0  0  0
   -5.9099  -18.4448   19.5151 H   0  0  0  0  0  0  0  0  0  0  0  0
   -7.2156  -19.4520   18.9415 H   0  0  0  0  0  0  0  0  0  0  0  0
   -6.8550  -16.8299   19.2304 H   0  0  0  0  0  0  0  0  0  0  0  0
   -7.6274  -16.9374   17.4292 H   0  0  0  0  0  0  0  0  0  0  0  0
  1  2  2  0
  2  3  1  0
  3  4  1  0
  4  5  1  0
  5  6  1  0
  6  7  1  0
  7  8  2  0
  8  9  1  0
  9 10  2  0
 10 11  1  0
 11 12  2  0
 12 13  1  0
 13 14  2  0
 14 15  1  0
  2 16  1  0
 16 17  1  0
 17 18  1  0
 18 19  1  0
 19 20  1  0
 20 21  2  0
 21 22  1  0
 22 23  2  0
 23 24  1  0
 24 25  2  0
 19 26  1  0
 26 27  1  0
 15  7  1  0
 27 16  1  0
 14  9  1  0
 25 20  1  0
  3 28  1  0
  3 29  1  0
  4 30  1  0
  4 31  1  0
  5 32  1  0
  5 33  1  0
 10 34  1  0
 11 35  1  0
 12 36  1  0
 13 37  1  0
 17 38  1  0
 17 39  1  0
 18 40  1  0
 18 41  1  0
 21 42  1  0
 22 43  1  0
 23 44  1  0
 24 45  1  0
 26 46  1  0
 26 47  1  0
 27 48  1  0
 27 49  1  0
M  END
>  <Energy>  (1145) 
1630.7898414343217

>  <compound_id>  (1145) 
11048

>  <target_id>  (1145) 
1

>  <reference_id>  (1145) 
82

>  <inspiration_ids>  (1145) 
[69, 82]

>  <energy_score>  (1145) 
1510.560260629939

>  <distance_score>  (1145) 
7.569859996243075

>  <path>  (1145) 
/opt/xchem-fragalysis-2/maxwin/BulkDock/SCRATCH/511020/C11048-P82/C11048-P82.minimised.mol

>  <scratch_subdir>  (1145) 
/opt/xchem-fragalysis-2/maxwin/BulkDock/SCRATCH/511020/C11048-P82

>  <fragmenstein_runtime>  (1145) 
29.529170036315918

>  <fragmenstein_outcome>  (1145) 
too moved

>  <fragmenstein_mode>  (1145) 
expansion

>  <fragmenstein_error>  (1145) 


$$$$
C52439-P69
     RDKit          3D

 47 50  0  0  0  0  0  0  0  0999 V2000
   -7.5747  -17.7051   22.3100 O   0  0  0  0  0  0  0  0  0  0  0  0
   -7.7733  -16.5119   22.5214 C   0  0  0  0  0  0  0  0  0  0  0  0
   -7.8946  -15.9884   24.7601 C   0  0  0  0  0  0  0  0  0  0  0  0
   -9.0485  -16.2608   26.3417 N   0  0  0  0  0  0  0  0  0  0  0  0
  -10.6042  -16.2795   26.7093 C   0  0  0  0  0  0  0  0  0  0  0  0
  -11.3697  -16.8063   28.3495 C   0  0  0  0  0  0  0  0  0  0  0  0
  -10.7466  -17.9742   29.1796 N   0  0  0  0  0  0  0  0  0  0  0  0
  -11.3000  -19.6913   29.6421 C   0  0  0  0  0  0  0  0  0  0  0  0
  -12.3178  -20.3812   29.1124 N   0  0  0  0  0  0  0  0  0  0  0  0
  -12.0393  -21.7371   29.0682 C   0  0  0  0  0  0  0  0  0  0  0  0
  -11.5253  -22.2194   30.2213 C   0  0  0  0  0  0  0  0  0  0  0  0
  -10.8814  -20.9146   31.0730 S   0  0  0  0  0  0  0  0  0  0  0  0
   -9.1007  -17.5353   28.5821 C   0  0  0  0  0  0  0  0  0  0  0  0
   -8.6873  -16.2865   27.7629 C   0  0  0  0  0  0  0  0  0  0  0  0
   -8.1353  -15.2182   20.9997 N   0  0  0  0  0  0  0  0  0  0  0  0
   -8.4233  -15.3540   19.0347 C   0  0  0  0  0  0  0  0  0  0  0  0
   -8.1287  -13.3203   18.2722 C   0  0  0  0  0  0  0  0  0  0  0  0
   -8.2824  -12.4147   16.4186 C   0  0  0  0  0  0  0  0  0  0  0  0
   -8.3873  -11.2947   15.5442 N   0  0  0  0  0  0  0  0  0  0  0  0
   -8.5179  -11.0333   14.1055 C   0  0  0  0  0  0  0  0  0  0  0  0
   -8.1737   -9.8797   13.3870 C   0  0  0  0  0  0  0  0  0  0  0  0
   -7.9673   -9.9440   11.9998 C   0  0  0  0  0  0  0  0  0  0  0  0
   -8.4197  -11.0157   11.2770 C   0  0  0  0  0  0  0  0  0  0  0  0
   -8.9101  -12.1049   11.9745 C   0  0  0  0  0  0  0  0  0  0  0  0
   -8.7858  -12.1420   13.3921 C   0  0  0  0  0  0  0  0  0  0  0  0
   -9.1524  -13.3840   14.5363 S   0  0  0  0  0  0  0  0  0  0  0  0
   -7.6291  -14.9306   25.0739 H   0  0  0  0  0  0  0  0  0  0  0  0
   -9.0047  -16.0252   24.6596 H   0  0  0  0  0  0  0  0  0  0  0  0
  -10.9489  -15.2479   26.8020 H   0  0  0  0  0  0  0  0  0  0  0  0
  -11.1142  -16.6810   25.8391 H   0  0  0  0  0  0  0  0  0  0  0  0
  -11.1440  -15.9206   28.9644 H   0  0  0  0  0  0  0  0  0  0  0  0
  -12.4633  -16.7988   28.3640 H   0  0  0  0  0  0  0  0  0  0  0  0
  -12.3831  -22.3272   28.2356 H   0  0  0  0  0  0  0  0  0  0  0  0
  -11.3538  -23.2302   30.5375 H   0  0  0  0  0  0  0  0  0  0  0  0
   -8.4873  -17.2386   29.4368 H   0  0  0  0  0  0  0  0  0  0  0  0
   -8.6115  -18.4251   28.2462 H   0  0  0  0  0  0  0  0  0  0  0  0
   -7.6536  -16.3544   27.9922 H   0  0  0  0  0  0  0  0  0  0  0  0
   -9.0071  -15.3576   28.2583 H   0  0  0  0  0  0  0  0  0  0  0  0
   -8.3460  -14.3530   21.3508 H   0  0  0  0  0  0  0  0  0  0  0  0
   -7.9907  -16.1527   18.4209 H   0  0  0  0  0  0  0  0  0  0  0  0
   -9.4887  -15.3618   19.1394 H   0  0  0  0  0  0  0  0  0  0  0  0
   -9.0063  -12.7946   18.7493 H   0  0  0  0  0  0  0  0  0  0  0  0
   -7.4267  -12.6492   18.8167 H   0  0  0  0  0  0  0  0  0  0  0  0
   -7.9443   -8.9871   13.9349 H   0  0  0  0  0  0  0  0  0  0  0  0
   -7.4760   -9.1394   11.4733 H   0  0  0  0  0  0  0  0  0  0  0  0
   -8.3817  -11.0167   10.1926 H   0  0  0  0  0  0  0  0  0  0  0  0
   -9.3256  -12.9499   11.4329 H   0  0  0  0  0  0  0  0  0  0  0  0
  1  2  2  0
  2  3  1  0
  3  4  1  0
  4  5  1  0
  5  6  1  0
  6  7  1  0
  7  8  1  0
  8  9  2  0
  9 10  1  0
 10 11  2  0
 11 12  1  0
  7 13  1  0
 13 14  1  0
  2 15  1  0
 15 16  1  0
 16 17  1  0
 17 18  1  0
 18 19  2  0
 19 20  1  0
 20 21  2  0
 21 22  1  0
 22 23  2  0
 23 24  1  0
 24 25  2  0
 25 26  1  0
 14  4  1  0
 26 18  1  0
 12  8  1  0
 25 20  1  0
  3 27  1  0
  3 28  1  0
  5 29  1  0
  5 30  1  0
  6 31  1  0
  6 32  1  0
 10 33  1  0
 11 34  1  0
 13 35  1  0
 13 36  1  0
 14 37  1  0
 14 38  1  0
 15 39  1  0
 16 40  1  0
 16 41  1  0
 17 42  1  0
 17 43  1  0
 21 44  1  0
 22 45  1  0
 23 46  1  0
 24 47  1  0
M  END
>  <Energy>  (1146) 
1287.1232157358861

>  <compound_id>  (1146) 
52439

>  <target_id>  (1146) 
1

>  <reference_id>  (1146) 
69

>  <inspiration_ids>  (1146) 
[69, 82]

>  <energy_score>  (1146) 
1064.3199263504825

>  <distance_score>  (1146) 
10.32291150265216

>  <path>  (1146) 
/opt/xchem-fragalysis-2/maxwin/BulkDock/SCRATCH/511020/C52439-P69/C52439-P69.minimised.mol

>  <scratch_subdir>  (1146) 
/opt/xchem-fragalysis-2/maxwin/BulkDock/SCRATCH/511020/C52439-P69

>  <fragmenstein_runtime>  (1146) 
65.96694159507751

>  <fragmenstein_outcome>  (1146) 
too moved

>  <fragmenstein_mode>  (1146) 
expansion

>  <fragmenstein_error>  (1146) 


$$$$
C52439-P82
     RDKit          3D

 47 50  0  0  0  0  0  0  0  0999 V2000
   -7.5829  -18.0556   22.4637 O   0  0  0  0  0  0  0  0  0  0  0  0
   -8.0496  -16.9177   22.5158 C   0  0  0  0  0  0  0  0  0  0  0  0
   -8.9126  -16.3044   24.6089 C   0  0  0  0  0  0  0  0  0  0  0  0
   -9.4437  -17.1388   26.4770 N   0  0  0  0  0  0  0  0  0  0  0  0
  -10.8471  -16.7701   27.4110 C   0  0  0  0  0  0  0  0  0  0  0  0
  -11.8126  -17.8797   28.7400 C   0  0  0  0  0  0  0  0  0  0  0  0
  -11.9363  -19.8204   29.0830 N   0  0  0  0  0  0  0  0  0  0  0  0
  -12.1827  -21.1439   29.6589 C   0  0  0  0  0  0  0  0  0  0  0  0
  -12.1014  -21.4910   30.9380 N   0  0  0  0  0  0  0  0  0  0  0  0
  -12.1999  -22.8498   31.1438 C   0  0  0  0  0  0  0  0  0  0  0  0
  -12.1289  -23.6186   30.0130 C   0  0  0  0  0  0  0  0  0  0  0  0
  -12.0626  -22.6198   28.6276 S   0  0  0  0  0  0  0  0  0  0  0  0
  -10.1142  -20.2578   28.9918 C   0  0  0  0  0  0  0  0  0  0  0  0
   -9.2089  -18.5214   27.9345 C   0  0  0  0  0  0  0  0  0  0  0  0
   -8.1424  -15.9463   20.7216 N   0  0  0  0  0  0  0  0  0  0  0  0
   -7.7611  -16.5078   18.7252 C   0  0  0  0  0  0  0  0  0  0  0  0
   -7.2698  -15.6784   16.7772 C   0  0  0  0  0  0  0  0  0  0  0  0
   -7.7046  -14.7363   14.9737 C   0  0  0  0  0  0  0  0  0  0  0  0
   -8.8844  -13.9123   14.5220 N   0  0  0  0  0  0  0  0  0  0  0  0
   -8.7028  -12.5214   13.6502 C   0  0  0  0  0  0  0  0  0  0  0  0
   -9.2465  -11.2305   13.7948 C   0  0  0  0  0  0  0  0  0  0  0  0
   -8.9548  -10.1335   12.9784 C   0  0  0  0  0  0  0  0  0  0  0  0
   -8.0524  -10.2239   11.9523 C   0  0  0  0  0  0  0  0  0  0  0  0
   -7.3307  -11.3877   11.8769 C   0  0  0  0  0  0  0  0  0  0  0  0
   -7.6328  -12.4153   12.8141 C   0  0  0  0  0  0  0  0  0  0  0  0
   -6.5808  -13.6722   13.2161 S   0  0  0  0  0  0  0  0  0  0  0  0
   -8.3924  -15.5267   25.1929 H   0  0  0  0  0  0  0  0  0  0  0  0
   -9.9378  -16.7577   24.5095 H   0  0  0  0  0  0  0  0  0  0  0  0
  -10.4396  -15.9890   28.0749 H   0  0  0  0  0  0  0  0  0  0  0  0
  -11.5149  -16.1719   26.7790 H   0  0  0  0  0  0  0  0  0  0  0  0
  -12.8303  -17.4722   28.7996 H   0  0  0  0  0  0  0  0  0  0  0  0
  -11.2773  -17.3589   29.5197 H   0  0  0  0  0  0  0  0  0  0  0  0
  -12.2789  -23.2317   32.1548 H   0  0  0  0  0  0  0  0  0  0  0  0
  -12.1639  -24.6948   29.9385 H   0  0  0  0  0  0  0  0  0  0  0  0
  -10.1325  -20.5660   30.0456 H   0  0  0  0  0  0  0  0  0  0  0  0
  -10.1215  -21.1548   28.2909 H   0  0  0  0  0  0  0  0  0  0  0  0
   -9.3018  -17.6484   28.6116 H   0  0  0  0  0  0  0  0  0  0  0  0
   -8.1207  -18.6144   28.1050 H   0  0  0  0  0  0  0  0  0  0  0  0
   -8.4502  -15.0011   20.8820 H   0  0  0  0  0  0  0  0  0  0  0  0
   -8.7348  -16.1392   18.4163 H   0  0  0  0  0  0  0  0  0  0  0  0
   -7.2558  -17.4960   18.6552 H   0  0  0  0  0  0  0  0  0  0  0  0
   -6.2416  -15.9458   16.5368 H   0  0  0  0  0  0  0  0  0  0  0  0
   -7.1401  -14.6295   17.0208 H   0  0  0  0  0  0  0  0  0  0  0  0
   -9.9406  -11.0297   14.5751 H   0  0  0  0  0  0  0  0  0  0  0  0
   -9.4623   -9.2269   13.2337 H   0  0  0  0  0  0  0  0  0  0  0  0
   -7.8325   -9.3943   11.2943 H   0  0  0  0  0  0  0  0  0  0  0  0
   -6.4787  -11.4758   11.2097 H   0  0  0  0  0  0  0  0  0  0  0  0
  1  2  2  0
  2  3  1  0
  3  4  1  0
  4  5  1  0
  5  6  1  0
  6  7  1  0
  7  8  1  0
  8  9  2  0
  9 10  1  0
 10 11  2  0
 11 12  1  0
  7 13  1  0
 13 14  1  0
  2 15  1  0
 15 16  1  0
 16 17  1  0
 17 18  1  0
 18 19  2  0
 19 20  1  0
 20 21  2  0
 21 22  1  0
 22 23  2  0
 23 24  1  0
 24 25  2  0
 25 26  1  0
 14  4  1  0
 26 18  1  0
 12  8  1  0
 25 20  1  0
  3 27  1  0
  3 28  1  0
  5 29  1  0
  5 30  1  0
  6 31  1  0
  6 32  1  0
 10 33  1  0
 11 34  1  0
 13 35  1  0
 13 36  1  0
 14 37  1  0
 14 38  1  0
 15 39  1  0
 16 40  1  0
 16 41  1  0
 17 42  1  0
 17 43  1  0
 21 44  1  0
 22 45  1  0
 23 46  1  0
 24 47  1  0
M  END
>  <Energy>  (1147) 
1854.9818355295322

>  <compound_id>  (1147) 
52439

>  <target_id>  (1147) 
1

>  <reference_id>  (1147) 
82

>  <inspiration_ids>  (1147) 
[69, 82]

>  <energy_score>  (1147) 
1632.178546144144

>  <distance_score>  (1147) 
9.814567571612342

>  <path>  (1147) 
/opt/xchem-fragalysis-2/maxwin/BulkDock/SCRATCH/511020/C52439-P82/C52439-P82.minimised.mol

>  <scratch_subdir>  (1147) 
/opt/xchem-fragalysis-2/maxwin/BulkDock/SCRATCH/511020/C52439-P82

>  <fragmenstein_runtime>  (1147) 
22.972683668136597

>  <fragmenstein_outcome>  (1147) 
too moved

>  <fragmenstein_mode>  (1147) 
expansion

>  <fragmenstein_error>  (1147) 


$$$$
C11049-P69
     RDKit          3D

 43 46  0  0  0  0  0  0  0  0999 V2000
   -7.2071  -11.8886   18.3967 C   0  0  0  0  0  0  0  0  0  0  0  0
   -8.3290  -12.4050   17.5262 C   0  0  0  0  0  0  0  0  0  0  0  0
   -8.7028  -11.9759   15.5640 C   0  0  0  0  0  0  0  0  0  0  0  0
   -9.0919  -12.7050   14.4432 N   0  0  0  0  0  0  0  0  0  0  0  0
   -8.8026  -12.0491   13.0685 C   0  0  0  0  0  0  0  0  0  0  0  0
   -9.2553  -12.3913   11.7641 C   0  0  0  0  0  0  0  0  0  0  0  0
   -8.8669  -11.6655   10.6115 C   0  0  0  0  0  0  0  0  0  0  0  0
   -7.9877  -10.6014   10.7139 C   0  0  0  0  0  0  0  0  0  0  0  0
   -7.6071  -10.1685   11.9757 C   0  0  0  0  0  0  0  0  0  0  0  0
   -8.1686  -10.8381   13.0807 C   0  0  0  0  0  0  0  0  0  0  0  0
   -8.6691  -10.1807   14.5276 S   0  0  0  0  0  0  0  0  0  0  0  0
   -8.1129  -13.7488   18.6518 N   0  0  0  0  0  0  0  0  0  0  0  0
   -8.3766  -13.8302   20.1413 C   0  0  0  0  0  0  0  0  0  0  0  0
   -7.5636  -15.6023   21.0083 C   0  0  0  0  0  0  0  0  0  0  0  0
   -8.1269  -16.6909   21.4585 N   0  0  0  0  0  0  0  0  0  0  0  0
   -6.9948  -17.8971   21.3894 C   0  0  0  0  0  0  0  0  0  0  0  0
   -7.0043  -18.8807   22.4021 C   0  0  0  0  0  0  0  0  0  0  0  0
   -6.4165  -20.1423   22.2665 C   0  0  0  0  0  0  0  0  0  0  0  0
   -5.7711  -20.4239   21.0920 C   0  0  0  0  0  0  0  0  0  0  0  0
   -5.7075  -19.4036   20.1582 C   0  0  0  0  0  0  0  0  0  0  0  0
   -6.2742  -18.1679   20.2750 N   0  0  0  0  0  0  0  0  0  0  0  0
   -8.8806  -15.8101   19.8619 C   0  0  0  0  0  0  0  0  0  0  0  0
   -8.3168  -15.5627   18.4390 C   0  0  0  0  0  0  0  0  0  0  0  0
   -7.4684  -10.9613   18.8832 H   0  0  0  0  0  0  0  0  0  0  0  0
   -6.9585  -12.2968   19.3762 H   0  0  0  0  0  0  0  0  0  0  0  0
   -6.1848  -12.1015   18.0553 H   0  0  0  0  0  0  0  0  0  0  0  0
   -9.3369  -12.1999   17.9620 H   0  0  0  0  0  0  0  0  0  0  0  0
   -9.9592  -13.2095   11.6647 H   0  0  0  0  0  0  0  0  0  0  0  0
   -9.2426  -11.9721    9.6385 H   0  0  0  0  0  0  0  0  0  0  0  0
   -7.6667  -10.0593    9.8298 H   0  0  0  0  0  0  0  0  0  0  0  0
   -7.0491   -9.2487   12.1029 H   0  0  0  0  0  0  0  0  0  0  0  0
   -8.9032  -13.1211   20.7725 H   0  0  0  0  0  0  0  0  0  0  0  0
   -9.3781  -13.7354   19.7007 H   0  0  0  0  0  0  0  0  0  0  0  0
   -6.6144  -16.0093   20.6199 H   0  0  0  0  0  0  0  0  0  0  0  0
   -7.5620  -15.7896   22.0542 H   0  0  0  0  0  0  0  0  0  0  0  0
   -7.6539  -18.8304   23.2296 H   0  0  0  0  0  0  0  0  0  0  0  0
   -6.5326  -20.8901   23.0422 H   0  0  0  0  0  0  0  0  0  0  0  0
   -5.3118  -21.3857   20.9070 H   0  0  0  0  0  0  0  0  0  0  0  0
   -5.1666  -19.5524   19.2285 H   0  0  0  0  0  0  0  0  0  0  0  0
   -9.7970  -15.3149   19.4752 H   0  0  0  0  0  0  0  0  0  0  0  0
   -9.8629  -16.1859   20.1121 H   0  0  0  0  0  0  0  0  0  0  0  0
   -9.1253  -15.9017   17.8288 H   0  0  0  0  0  0  0  0  0  0  0  0
   -7.6448  -16.1986   17.8532 H   0  0  0  0  0  0  0  0  0  0  0  0
  1  2  1  0
  2  3  1  0
  3  4  2  0
  4  5  1  0
  5  6  2  0
  6  7  1  0
  7  8  2  0
  8  9  1  0
  9 10  2  0
 10 11  1  0
  2 12  1  0
 12 13  1  0
 13 14  1  0
 14 15  1  0
 15 16  1  0
 16 17  2  0
 17 18  1  0
 18 19  2  0
 19 20  1  0
 20 21  2  0
 15 22  1  0
 22 23  1  0
 11  3  1  0
 23 12  1  0
 10  5  1  0
 21 16  1  0
  1 24  1  0
  1 25  1  0
  1 26  1  0
  2 27  1  0
  6 28  1  0
  7 29  1  0
  8 30  1  0
  9 31  1  0
 13 32  1  0
 13 33  1  0
 14 34  1  0
 14 35  1  0
 17 36  1  0
 18 37  1  0
 19 38  1  0
 20 39  1  0
 22 40  1  0
 22 41  1  0
 23 42  1  0
 23 43  1  0
M  END
>  <Energy>  (1148) 
980.80920232555457

>  <compound_id>  (1148) 
11049

>  <target_id>  (1148) 
1

>  <reference_id>  (1148) 
69

>  <inspiration_ids>  (1148) 
[69, 82]

>  <energy_score>  (1148) 
808.8823149844526

>  <distance_score>  (1148) 
12.153763242977096

>  <path>  (1148) 
/opt/xchem-fragalysis-2/maxwin/BulkDock/SCRATCH/511020/C11049-P69/C11049-P69.minimised.mol

>  <scratch_subdir>  (1148) 
/opt/xchem-fragalysis-2/maxwin/BulkDock/SCRATCH/511020/C11049-P69

>  <fragmenstein_runtime>  (1148) 
18.75789976119995

>  <fragmenstein_outcome>  (1148) 
too moved

>  <fragmenstein_mode>  (1148) 
expansion

>  <fragmenstein_error>  (1148) 


$$$$
C11049-P82
     RDKit          3D

 43 46  0  0  0  0  0  0  0  0999 V2000
   -7.1413  -11.3708   17.6711 C   0  0  0  0  0  0  0  0  0  0  0  0
   -8.2426  -12.2427   16.8453 C   0  0  0  0  0  0  0  0  0  0  0  0
   -8.7378  -11.8230   14.9957 C   0  0  0  0  0  0  0  0  0  0  0  0
   -8.5380  -10.5980   14.4238 N   0  0  0  0  0  0  0  0  0  0  0  0
   -8.2646  -10.6159   13.0630 C   0  0  0  0  0  0  0  0  0  0  0  0
   -7.5786   -9.6554   12.2929 C   0  0  0  0  0  0  0  0  0  0  0  0
   -7.4918   -9.7848   10.9015 C   0  0  0  0  0  0  0  0  0  0  0  0
   -8.1123  -10.8486   10.2731 C   0  0  0  0  0  0  0  0  0  0  0  0
   -8.7128  -11.8602   11.0306 C   0  0  0  0  0  0  0  0  0  0  0  0
   -8.6947  -11.7611   12.4368 C   0  0  0  0  0  0  0  0  0  0  0  0
   -9.0192  -12.9472   13.6714 S   0  0  0  0  0  0  0  0  0  0  0  0
   -7.7991  -13.4554   17.4700 N   0  0  0  0  0  0  0  0  0  0  0  0
   -8.3124  -13.7451   18.8963 C   0  0  0  0  0  0  0  0  0  0  0  0
   -8.7176  -15.5337   18.9935 C   0  0  0  0  0  0  0  0  0  0  0  0
   -7.8464  -16.6798   18.1233 N   0  0  0  0  0  0  0  0  0  0  0  0
   -6.7691  -17.7496   18.9729 C   0  0  0  0  0  0  0  0  0  0  0  0
   -6.6251  -17.6297   20.3881 C   0  0  0  0  0  0  0  0  0  0  0  0
   -6.5790  -18.7125   21.3070 C   0  0  0  0  0  0  0  0  0  0  0  0
   -6.4762  -19.9898   20.8376 C   0  0  0  0  0  0  0  0  0  0  0  0
   -6.4315  -20.0749   19.4762 C   0  0  0  0  0  0  0  0  0  0  0  0
   -6.5702  -19.0124   18.5954 N   0  0  0  0  0  0  0  0  0  0  0  0
   -7.3265  -16.0552   16.8362 C   0  0  0  0  0  0  0  0  0  0  0  0
   -7.0644  -14.5254   16.6928 C   0  0  0  0  0  0  0  0  0  0  0  0
   -7.5796  -11.1399   18.6406 H   0  0  0  0  0  0  0  0  0  0  0  0
   -6.2396  -11.9389   17.9824 H   0  0  0  0  0  0  0  0  0  0  0  0
   -6.7352  -10.5358   17.0854 H   0  0  0  0  0  0  0  0  0  0  0  0
   -9.2070  -12.2574   17.3927 H   0  0  0  0  0  0  0  0  0  0  0  0
   -7.1065   -8.8196   12.7928 H   0  0  0  0  0  0  0  0  0  0  0  0
   -6.9587   -9.0413   10.3171 H   0  0  0  0  0  0  0  0  0  0  0  0
   -8.0795  -10.9419    9.1925 H   0  0  0  0  0  0  0  0  0  0  0  0
   -9.1058  -12.7483   10.5450 H   0  0  0  0  0  0  0  0  0  0  0  0
   -7.5991  -13.3720   19.6215 H   0  0  0  0  0  0  0  0  0  0  0  0
   -9.2247  -13.2022   19.1582 H   0  0  0  0  0  0  0  0  0  0  0  0
   -9.7490  -15.6291   18.8278 H   0  0  0  0  0  0  0  0  0  0  0  0
   -8.6258  -15.8037   20.0284 H   0  0  0  0  0  0  0  0  0  0  0  0
   -6.9400  -16.7150   20.8237 H   0  0  0  0  0  0  0  0  0  0  0  0
   -6.6959  -18.5198   22.3676 H   0  0  0  0  0  0  0  0  0  0  0  0
   -6.4515  -20.8560   21.4810 H   0  0  0  0  0  0  0  0  0  0  0  0
   -6.3345  -21.0411   18.9886 H   0  0  0  0  0  0  0  0  0  0  0  0
   -6.2799  -16.1762   16.5727 H   0  0  0  0  0  0  0  0  0  0  0  0
   -7.9856  -16.4185   16.0729 H   0  0  0  0  0  0  0  0  0  0  0  0
   -6.0814  -14.2033   16.8854 H   0  0  0  0  0  0  0  0  0  0  0  0
   -7.1963  -14.5427   15.6244 H   0  0  0  0  0  0  0  0  0  0  0  0
  1  2  1  0
  2  3  1  0
  3  4  2  0
  4  5  1  0
  5  6  2  0
  6  7  1  0
  7  8  2  0
  8  9  1  0
  9 10  2  0
 10 11  1  0
  2 12  1  0
 12 13  1  0
 13 14  1  0
 14 15  1  0
 15 16  1  0
 16 17  2  0
 17 18  1  0
 18 19  2  0
 19 20  1  0
 20 21  2  0
 15 22  1  0
 22 23  1  0
 11  3  1  0
 23 12  1  0
 10  5  1  0
 21 16  1  0
  1 24  1  0
  1 25  1  0
  1 26  1  0
  2 27  1  0
  6 28  1  0
  7 29  1  0
  8 30  1  0
  9 31  1  0
 13 32  1  0
 13 33  1  0
 14 34  1  0
 14 35  1  0
 17 36  1  0
 18 37  1  0
 19 38  1  0
 20 39  1  0
 22 40  1  0
 22 41  1  0
 23 42  1  0
 23 43  1  0
M  END
>  <Energy>  (1149) 
349.10532936213349

>  <compound_id>  (1149) 
11049

>  <target_id>  (1149) 
1

>  <reference_id>  (1149) 
82

>  <inspiration_ids>  (1149) 
[69, 82]

>  <energy_score>  (1149) 
177.17844202104243

>  <distance_score>  (1149) 
12.672644187595276

>  <path>  (1149) 
/opt/xchem-fragalysis-2/maxwin/BulkDock/SCRATCH/511020/C11049-P82/C11049-P82.minimised.mol

>  <scratch_subdir>  (1149) 
/opt/xchem-fragalysis-2/maxwin/BulkDock/SCRATCH/511020/C11049-P82

>  <fragmenstein_runtime>  (1149) 
28.861785888671875

>  <fragmenstein_outcome>  (1149) 
too moved

>  <fragmenstein_mode>  (1149) 
expansion

>  <fragmenstein_error>  (1149) 


$$$$
C11050-P69
     RDKit          3D

 39 42  0  0  0  0  0  0  0  0999 V2000
  -17.2040   -7.3563   17.3710 O   0  0  0  0  0  0  0  0  0  0  0  0
  -16.2897   -6.9697   17.9717 C   0  0  0  0  0  0  0  0  0  0  0  0
  -15.0640   -6.6284   17.0594 C   0  0  0  0  0  0  0  0  0  0  0  0
  -14.9700   -7.3211   15.8315 C   0  0  0  0  0  0  0  0  0  0  0  0
  -14.0217   -7.0124   14.8300 C   0  0  0  0  0  0  0  0  0  0  0  0
  -13.1020   -5.9720   15.0344 C   0  0  0  0  0  0  0  0  0  0  0  0
  -12.1061   -5.5878   14.1485 N   0  0  0  0  0  0  0  0  0  0  0  0
  -11.3973   -4.6197   14.6776 C   0  0  0  0  0  0  0  0  0  0  0  0
  -11.9179   -4.0632   16.2135 S   0  0  0  0  0  0  0  0  0  0  0  0
  -13.1790   -5.2578   16.2367 C   0  0  0  0  0  0  0  0  0  0  0  0
  -14.1646   -5.5537   17.2440 C   0  0  0  0  0  0  0  0  0  0  0  0
  -16.0836   -6.6213   19.5443 N   0  0  0  0  0  0  0  0  0  0  0  0
  -17.2441   -6.5038   21.1025 C   0  0  0  0  0  0  0  0  0  0  0  0
  -18.5555   -7.5218   21.8991 C   0  0  0  0  0  0  0  0  0  0  0  0
  -17.8325   -8.7287   22.2062 N   0  0  0  0  0  0  0  0  0  0  0  0
  -18.0669   -9.3372   23.4435 C   0  0  0  0  0  0  0  0  0  0  0  0
  -19.3532   -9.7768   23.7852 C   0  0  0  0  0  0  0  0  0  0  0  0
  -19.6110  -10.4917   24.9774 C   0  0  0  0  0  0  0  0  0  0  0  0
  -18.5858  -10.7491   25.8655 C   0  0  0  0  0  0  0  0  0  0  0  0
  -17.3454  -10.3012   25.4832 C   0  0  0  0  0  0  0  0  0  0  0  0
  -17.0806   -9.6451   24.3015 N   0  0  0  0  0  0  0  0  0  0  0  0
  -16.5431   -8.4516   21.5470 C   0  0  0  0  0  0  0  0  0  0  0  0
  -17.0184   -6.8913   20.4778 C   0  0  0  0  0  0  0  0  0  0  0  0
  -15.6687   -8.1357   15.6341 H   0  0  0  0  0  0  0  0  0  0  0  0
  -13.9910   -7.5910   13.9123 H   0  0  0  0  0  0  0  0  0  0  0  0
  -10.5442   -4.1917   14.1683 H   0  0  0  0  0  0  0  0  0  0  0  0
  -14.2165   -4.9540   18.1479 H   0  0  0  0  0  0  0  0  0  0  0  0
  -17.8063   -5.3931   21.0303 H   0  0  0  0  0  0  0  0  0  0  0  0
  -16.5323   -6.1251   22.0336 H   0  0  0  0  0  0  0  0  0  0  0  0
  -18.8741   -6.9465   22.7769 H   0  0  0  0  0  0  0  0  0  0  0  0
  -19.3837   -7.6805   21.1987 H   0  0  0  0  0  0  0  0  0  0  0  0
  -20.1740   -9.6091   23.0933 H   0  0  0  0  0  0  0  0  0  0  0  0
  -20.6200  -10.8360   25.1867 H   0  0  0  0  0  0  0  0  0  0  0  0
  -18.7448  -11.2854   26.7910 H   0  0  0  0  0  0  0  0  0  0  0  0
  -16.4788  -10.4797   26.1134 H   0  0  0  0  0  0  0  0  0  0  0  0
  -16.2083   -9.2529   20.8768 H   0  0  0  0  0  0  0  0  0  0  0  0
  -15.7453   -8.1422   22.2336 H   0  0  0  0  0  0  0  0  0  0  0  0
  -18.1448   -6.8099   19.7093 H   0  0  0  0  0  0  0  0  0  0  0  0
  -17.2390   -7.9019   19.8242 H   0  0  0  0  0  0  0  0  0  0  0  0
  1  2  2  0
  2  3  1  0
  3  4  2  0
  4  5  1  0
  5  6  2  0
  6  7  1  0
  7  8  2  0
  8  9  1  0
  9 10  1  0
 10 11  2  0
  2 12  1  0
 12 13  1  0
 13 14  1  0
 14 15  1  0
 15 16  1  0
 16 17  2  0
 17 18  1  0
 18 19  2  0
 19 20  1  0
 20 21  2  0
 15 22  1  0
 22 23  1  0
 11  3  1  0
 23 12  1  0
 10  6  1  0
 21 16  1  0
  4 24  1  0
  5 25  1  0
  8 26  1  0
 11 27  1  0
 13 28  1  0
 13 29  1  0
 14 30  1  0
 14 31  1  0
 17 32  1  0
 18 33  1  0
 19 34  1  0
 20 35  1  0
 22 36  1  0
 22 37  1  0
 23 38  1  0
 23 39  1  0
M  END
>  <Energy>  (1150) 
854.88931702463151

>  <compound_id>  (1150) 
11050

>  <target_id>  (1150) 
1

>  <reference_id>  (1150) 
69

>  <inspiration_ids>  (1150) 
[69, 82]

>  <energy_score>  (1150) 
698.0195299988409

>  <distance_score>  (1150) 
14.915695473099419

>  <path>  (1150) 
/opt/xchem-fragalysis-2/maxwin/BulkDock/SCRATCH/511020/C11050-P69/C11050-P69.minimised.mol

>  <scratch_subdir>  (1150) 
/opt/xchem-fragalysis-2/maxwin/BulkDock/SCRATCH/511020/C11050-P69

>  <fragmenstein_runtime>  (1150) 
30.834636449813843

>  <fragmenstein_outcome>  (1150) 
too moved

>  <fragmenstein_mode>  (1150) 
expansion

>  <fragmenstein_error>  (1150) 


$$$$
C11050-P82
     RDKit          3D

 39 42  0  0  0  0  0  0  0  0999 V2000
  -17.3960   -3.3548   14.7207 O   0  0  0  0  0  0  0  0  0  0  0  0
  -16.3973   -3.5147   15.2798 C   0  0  0  0  0  0  0  0  0  0  0  0
  -15.1867   -2.8371   14.6532 C   0  0  0  0  0  0  0  0  0  0  0  0
  -13.8822   -3.2462   14.9034 C   0  0  0  0  0  0  0  0  0  0  0  0
  -12.8038   -2.6242   14.2503 C   0  0  0  0  0  0  0  0  0  0  0  0
  -13.0119   -1.5733   13.3225 C   0  0  0  0  0  0  0  0  0  0  0  0
  -12.0533   -0.9545   12.5297 N   0  0  0  0  0  0  0  0  0  0  0  0
  -12.5984   -0.0556   11.7480 C   0  0  0  0  0  0  0  0  0  0  0  0
  -14.2966    0.0921   11.8832 S   0  0  0  0  0  0  0  0  0  0  0  0
  -14.3185   -1.1639   13.0753 C   0  0  0  0  0  0  0  0  0  0  0  0
  -15.4069   -1.7803   13.7290 C   0  0  0  0  0  0  0  0  0  0  0  0
  -16.0397   -4.2344   16.6404 N   0  0  0  0  0  0  0  0  0  0  0  0
  -17.3431   -5.2674   17.6572 C   0  0  0  0  0  0  0  0  0  0  0  0
  -17.1005   -7.0096   17.5500 C   0  0  0  0  0  0  0  0  0  0  0  0
  -15.9568   -7.1715   18.4113 N   0  0  0  0  0  0  0  0  0  0  0  0
  -16.0541   -8.1275   19.4336 C   0  0  0  0  0  0  0  0  0  0  0  0
  -16.0972   -9.4773   19.0860 C   0  0  0  0  0  0  0  0  0  0  0  0
  -16.0590  -10.4537   20.0661 C   0  0  0  0  0  0  0  0  0  0  0  0
  -15.9318  -10.0561   21.3766 C   0  0  0  0  0  0  0  0  0  0  0  0
  -15.9797   -8.7177   21.6744 C   0  0  0  0  0  0  0  0  0  0  0  0
  -16.0621   -7.7562   20.7346 N   0  0  0  0  0  0  0  0  0  0  0  0
  -15.5728   -5.8029   18.7381 C   0  0  0  0  0  0  0  0  0  0  0  0
  -16.7313   -4.7762   17.6355 C   0  0  0  0  0  0  0  0  0  0  0  0
  -13.6826   -4.0686   15.5868 H   0  0  0  0  0  0  0  0  0  0  0  0
  -11.8002   -3.0009   14.4223 H   0  0  0  0  0  0  0  0  0  0  0  0
  -12.0156    0.5451   11.0611 H   0  0  0  0  0  0  0  0  0  0  0  0
  -16.4223   -1.4532   13.5136 H   0  0  0  0  0  0  0  0  0  0  0  0
  -18.2891   -5.2614   16.8724 H   0  0  0  0  0  0  0  0  0  0  0  0
  -18.0623   -5.0448   18.7074 H   0  0  0  0  0  0  0  0  0  0  0  0
  -16.8789   -7.2682   16.5091 H   0  0  0  0  0  0  0  0  0  0  0  0
  -18.0213   -7.4891   17.9018 H   0  0  0  0  0  0  0  0  0  0  0  0
  -16.0915   -9.7487   18.0392 H   0  0  0  0  0  0  0  0  0  0  0  0
  -16.0590  -11.4988   19.7967 H   0  0  0  0  0  0  0  0  0  0  0  0
  -15.7548  -10.7781   22.1491 H   0  0  0  0  0  0  0  0  0  0  0  0
  -15.9273   -8.3565   22.6937 H   0  0  0  0  0  0  0  0  0  0  0  0
  -14.5412   -5.5812   18.4418 H   0  0  0  0  0  0  0  0  0  0  0  0
  -15.7954   -5.5125   19.7742 H   0  0  0  0  0  0  0  0  0  0  0  0
  -16.0484   -4.0411   18.3326 H   0  0  0  0  0  0  0  0  0  0  0  0
  -17.3259   -3.6058   17.9950 H   0  0  0  0  0  0  0  0  0  0  0  0
  1  2  2  0
  2  3  1  0
  3  4  2  0
  4  5  1  0
  5  6  2  0
  6  7  1  0
  7  8  2  0
  8  9  1  0
  9 10  1  0
 10 11  2  0
  2 12  1  0
 12 13  1  0
 13 14  1  0
 14 15  1  0
 15 16  1  0
 16 17  2  0
 17 18  1  0
 18 19  2  0
 19 20  1  0
 20 21  2  0
 15 22  1  0
 22 23  1  0
 11  3  1  0
 23 12  1  0
 10  6  1  0
 21 16  1  0
  4 24  1  0
  5 25  1  0
  8 26  1  0
 11 27  1  0
 13 28  1  0
 13 29  1  0
 14 30  1  0
 14 31  1  0
 17 32  1  0
 18 33  1  0
 19 34  1  0
 20 35  1  0
 22 36  1  0
 22 37  1  0
 23 38  1  0
 23 39  1  0
M  END
>  <Energy>  (1151) 
823.56209538692849

>  <compound_id>  (1151) 
11050

>  <target_id>  (1151) 
1

>  <reference_id>  (1151) 
82

>  <inspiration_ids>  (1151) 
[69, 82]

>  <energy_score>  (1151) 
666.6923083611343

>  <distance_score>  (1151) 
14.8176483272332

>  <path>  (1151) 
/opt/xchem-fragalysis-2/maxwin/BulkDock/SCRATCH/511020/C11050-P82/C11050-P82.minimised.mol

>  <scratch_subdir>  (1151) 
/opt/xchem-fragalysis-2/maxwin/BulkDock/SCRATCH/511020/C11050-P82

>  <fragmenstein_runtime>  (1151) 
34.6909019947052

>  <fragmenstein_outcome>  (1151) 
too moved

>  <fragmenstein_mode>  (1151) 
expansion

>  <fragmenstein_error>  (1151) 


$$$$
C11051-P69
     RDKit          3D

 39 42  0  0  0  0  0  0  0  0999 V2000
  -10.7295   -9.0964   13.4229 O   0  0  0  0  0  0  0  0  0  0  0  0
   -9.7507   -9.5391   12.9556 C   0  0  0  0  0  0  0  0  0  0  0  0
   -9.2825   -8.3883   11.1408 C   0  0  0  0  0  0  0  0  0  0  0  0
   -9.8150   -6.1453   11.1406 C   0  0  0  0  0  0  0  0  0  0  0  0
   -9.1362   -5.0018    9.9972 C   0  0  0  0  0  0  0  0  0  0  0  0
   -7.5437   -5.4316    9.3957 C   0  0  0  0  0  0  0  0  0  0  0  0
   -7.1513   -7.2430    9.1173 C   0  0  0  0  0  0  0  0  0  0  0  0
   -8.2694   -6.0128    7.4132 S   0  0  0  0  0  0  0  0  0  0  0  0
   -9.4592   -7.9357    7.7548 C   0  0  0  0  0  0  0  0  0  0  0  0
   -8.9352   -8.9687    8.4882 N   0  0  0  0  0  0  0  0  0  0  0  0
   -8.0851   -8.7037    9.7327 C   0  0  0  0  0  0  0  0  0  0  0  0
   -9.2661  -11.0885   14.0185 N   0  0  0  0  0  0  0  0  0  0  0  0
   -8.3984  -11.1912   15.2271 C   0  0  0  0  0  0  0  0  0  0  0  0
   -8.0777  -12.2895   17.0233 C   0  0  0  0  0  0  0  0  0  0  0  0
   -8.6998  -13.0142   18.6845 N   0  0  0  0  0  0  0  0  0  0  0  0
   -8.6730  -14.9221   19.1879 C   0  0  0  0  0  0  0  0  0  0  0  0
   -8.0012  -15.7654   20.6670 C   0  0  0  0  0  0  0  0  0  0  0  0
   -6.8567  -17.0439   21.0655 C   0  0  0  0  0  0  0  0  0  0  0  0
   -6.3544  -17.8113   20.0916 C   0  0  0  0  0  0  0  0  0  0  0  0
   -6.8960  -17.2756   18.8891 C   0  0  0  0  0  0  0  0  0  0  0  0
   -8.0348  -16.0402   18.2953 N   0  0  0  0  0  0  0  0  0  0  0  0
  -10.0751  -12.1995   17.6147 C   0  0  0  0  0  0  0  0  0  0  0  0
  -10.1558  -12.0075   15.5102 C   0  0  0  0  0  0  0  0  0  0  0  0
  -10.5046   -5.5432   11.8329 H   0  0  0  0  0  0  0  0  0  0  0  0
   -9.4832   -4.0170    9.7588 H   0  0  0  0  0  0  0  0  0  0  0  0
   -6.9104   -5.1614   10.2256 H   0  0  0  0  0  0  0  0  0  0  0  0
  -10.2668   -7.9657    7.0241 H   0  0  0  0  0  0  0  0  0  0  0  0
   -7.8710  -10.2185   15.0706 H   0  0  0  0  0  0  0  0  0  0  0  0
   -8.0787  -11.8273   14.3916 H   0  0  0  0  0  0  0  0  0  0  0  0
   -7.6144  -13.2714   16.8286 H   0  0  0  0  0  0  0  0  0  0  0  0
   -7.4292  -11.6279   17.6256 H   0  0  0  0  0  0  0  0  0  0  0  0
   -7.9132  -15.7287   21.6852 H   0  0  0  0  0  0  0  0  0  0  0  0
   -6.7510  -17.3639   22.1054 H   0  0  0  0  0  0  0  0  0  0  0  0
   -5.6138  -18.5826   20.1849 H   0  0  0  0  0  0  0  0  0  0  0  0
   -5.9152  -17.2648   18.4214 H   0  0  0  0  0  0  0  0  0  0  0  0
  -10.4850  -11.3591   18.1796 H   0  0  0  0  0  0  0  0  0  0  0  0
  -10.7187  -12.8829   17.9241 H   0  0  0  0  0  0  0  0  0  0  0  0
  -10.2136  -12.9973   15.0712 H   0  0  0  0  0  0  0  0  0  0  0  0
  -11.0328  -11.3920   15.6748 H   0  0  0  0  0  0  0  0  0  0  0  0
  1  2  2  0
  2  3  1  0
  3  4  2  0
  4  5  1  0
  5  6  2  0
  6  7  1  0
  7  8  1  0
  8  9  1  0
  9 10  2  0
 10 11  1  0
  2 12  1  0
 12 13  1  0
 13 14  1  0
 14 15  1  0
 15 16  1  0
 16 17  2  0
 17 18  1  0
 18 19  2  0
 19 20  1  0
 20 21  2  0
 15 22  1  0
 22 23  1  0
 11  3  1  0
 23 12  1  0
 11  7  2  0
 21 16  1  0
  4 24  1  0
  5 25  1  0
  6 26  1  0
  9 27  1  0
 13 28  1  0
 13 29  1  0
 14 30  1  0
 14 31  1  0
 17 32  1  0
 18 33  1  0
 19 34  1  0
 20 35  1  0
 22 36  1  0
 22 37  1  0
 23 38  1  0
 23 39  1  0
M  END
>  <Energy>  (1152) 
2378.4863995597611

>  <compound_id>  (1152) 
11051

>  <target_id>  (1152) 
1

>  <reference_id>  (1152) 
69

>  <inspiration_ids>  (1152) 
[69, 82]

>  <energy_score>  (1152) 
2242.2137564580453

>  <distance_score>  (1152) 
11.008936712753247

>  <path>  (1152) 
/opt/xchem-fragalysis-2/maxwin/BulkDock/SCRATCH/511020/C11051-P69/C11051-P69.minimised.mol

>  <scratch_subdir>  (1152) 
/opt/xchem-fragalysis-2/maxwin/BulkDock/SCRATCH/511020/C11051-P69

>  <fragmenstein_runtime>  (1152) 
19.453694820404053

>  <fragmenstein_outcome>  (1152) 
too moved

>  <fragmenstein_mode>  (1152) 
expansion

>  <fragmenstein_error>  (1152) 


$$$$
C11051-P82
     RDKit          3D

 39 42  0  0  0  0  0  0  0  0999 V2000
   -5.8714   -9.9003   17.2341 O   0  0  0  0  0  0  0  0  0  0  0  0
   -6.7310  -10.4820   16.7001 C   0  0  0  0  0  0  0  0  0  0  0  0
   -7.0137   -9.7050   15.0405 C   0  0  0  0  0  0  0  0  0  0  0  0
   -6.1128   -8.5588   14.9771 C   0  0  0  0  0  0  0  0  0  0  0  0
   -5.6743   -7.9161   13.8227 C   0  0  0  0  0  0  0  0  0  0  0  0
   -6.0613   -8.4155   12.6034 C   0  0  0  0  0  0  0  0  0  0  0  0
   -7.0261   -9.4386   12.5918 C   0  0  0  0  0  0  0  0  0  0  0  0
   -7.6634  -10.1791   11.1655 S   0  0  0  0  0  0  0  0  0  0  0  0
   -8.6564  -11.1433   12.1478 C   0  0  0  0  0  0  0  0  0  0  0  0
   -8.5433  -10.9920   13.4479 N   0  0  0  0  0  0  0  0  0  0  0  0
   -7.5834  -10.0346   13.7520 C   0  0  0  0  0  0  0  0  0  0  0  0
   -7.4850  -12.0088   17.5629 N   0  0  0  0  0  0  0  0  0  0  0  0
   -8.9070  -12.1847   18.7196 C   0  0  0  0  0  0  0  0  0  0  0  0
   -9.1572  -13.7180   19.9882 C   0  0  0  0  0  0  0  0  0  0  0  0
   -8.3181  -15.4890   20.5822 N   0  0  0  0  0  0  0  0  0  0  0  0
   -8.1796  -16.5947   22.2674 C   0  0  0  0  0  0  0  0  0  0  0  0
   -9.5987  -16.3256   23.8300 C   0  0  0  0  0  0  0  0  0  0  0  0
  -10.3337  -17.6587   24.6582 C   0  0  0  0  0  0  0  0  0  0  0  0
   -9.7296  -19.1642   24.2025 C   0  0  0  0  0  0  0  0  0  0  0  0
   -8.3206  -19.3331   23.2045 C   0  0  0  0  0  0  0  0  0  0  0  0
   -7.7063  -18.1045   22.2021 N   0  0  0  0  0  0  0  0  0  0  0  0
   -7.9617  -13.7690   19.6833 C   0  0  0  0  0  0  0  0  0  0  0  0
   -7.1076  -12.6567   18.7569 C   0  0  0  0  0  0  0  0  0  0  0  0
   -5.6768   -8.1891   15.9083 H   0  0  0  0  0  0  0  0  0  0  0  0
   -4.9645   -7.0961   13.8887 H   0  0  0  0  0  0  0  0  0  0  0  0
   -5.6616   -8.0109   11.6784 H   0  0  0  0  0  0  0  0  0  0  0  0
   -9.3390  -11.8652   11.7198 H   0  0  0  0  0  0  0  0  0  0  0  0
   -9.7762  -12.3865   18.0713 H   0  0  0  0  0  0  0  0  0  0  0  0
   -9.2051  -11.2711   19.1969 H   0  0  0  0  0  0  0  0  0  0  0  0
  -10.0178  -14.0529   19.3569 H   0  0  0  0  0  0  0  0  0  0  0  0
   -9.4439  -13.2265   20.9768 H   0  0  0  0  0  0  0  0  0  0  0  0
   -9.0834  -15.8643   24.9198 H   0  0  0  0  0  0  0  0  0  0  0  0
  -11.1342  -17.5268   25.3726 H   0  0  0  0  0  0  0  0  0  0  0  0
  -10.3967  -19.9954   24.4085 H   0  0  0  0  0  0  0  0  0  0  0  0
   -7.9019  -20.3056   22.9487 H   0  0  0  0  0  0  0  0  0  0  0  0
   -8.1268  -14.2942   18.6493 H   0  0  0  0  0  0  0  0  0  0  0  0
   -7.0759  -13.6066   20.2058 H   0  0  0  0  0  0  0  0  0  0  0  0
   -7.1276  -11.8305   19.3930 H   0  0  0  0  0  0  0  0  0  0  0  0
   -6.0167  -12.6709   18.7336 H   0  0  0  0  0  0  0  0  0  0  0  0
  1  2  2  0
  2  3  1  0
  3  4  2  0
  4  5  1  0
  5  6  2  0
  6  7  1  0
  7  8  1  0
  8  9  1  0
  9 10  2  0
 10 11  1  0
  2 12  1  0
 12 13  1  0
 13 14  1  0
 14 15  1  0
 15 16  1  0
 16 17  2  0
 17 18  1  0
 18 19  2  0
 19 20  1  0
 20 21  2  0
 15 22  1  0
 22 23  1  0
 11  3  1  0
 23 12  1  0
 11  7  2  0
 21 16  1  0
  4 24  1  0
  5 25  1  0
  6 26  1  0
  9 27  1  0
 13 28  1  0
 13 29  1  0
 14 30  1  0
 14 31  1  0
 17 32  1  0
 18 33  1  0
 19 34  1  0
 20 35  1  0
 22 36  1  0
 22 37  1  0
 23 38  1  0
 23 39  1  0
M  END
>  <Energy>  (1153) 
1541.3054577686316

>  <compound_id>  (1153) 
11051

>  <target_id>  (1153) 
1

>  <reference_id>  (1153) 
82

>  <inspiration_ids>  (1153) 
[69, 82]

>  <energy_score>  (1153) 
1405.0328146669085

>  <distance_score>  (1153) 
10.681993491912642

>  <path>  (1153) 
/opt/xchem-fragalysis-2/maxwin/BulkDock/SCRATCH/511020/C11051-P82/C11051-P82.minimised.mol

>  <scratch_subdir>  (1153) 
/opt/xchem-fragalysis-2/maxwin/BulkDock/SCRATCH/511020/C11051-P82

>  <fragmenstein_runtime>  (1153) 
27.024720430374146

>  <fragmenstein_outcome>  (1153) 
too moved

>  <fragmenstein_mode>  (1153) 
expansion

>  <fragmenstein_error>  (1153) 


$$$$
C11052-P69
     RDKit          3D

 47 50  0  0  0  0  0  0  0  0999 V2000
   -8.9042  -12.2170   13.1444 C   0  0  0  0  0  0  0  0  0  0  0  0
   -8.2848  -11.4191   14.2019 N   0  0  0  0  0  0  0  0  0  0  0  0
   -8.3072  -12.0600   15.8801 C   0  0  0  0  0  0  0  0  0  0  0  0
   -7.7674  -13.5283   17.2374 C   0  0  0  0  0  0  0  0  0  0  0  0
   -8.0043  -13.1128   18.4027 O   0  0  0  0  0  0  0  0  0  0  0  0
   -7.2928  -15.4007   16.8868 N   0  0  0  0  0  0  0  0  0  0  0  0
   -7.2732  -16.5923   17.7919 C   0  0  0  0  0  0  0  0  0  0  0  0
   -6.5765  -17.4308   18.8560 C   0  0  0  0  0  0  0  0  0  0  0  0
   -5.1866  -17.4179   19.0921 N   0  0  0  0  0  0  0  0  0  0  0  0
   -5.2250  -18.0776   20.2965 C   0  0  0  0  0  0  0  0  0  0  0  0
   -5.6727  -19.3228   20.3331 C   0  0  0  0  0  0  0  0  0  0  0  0
   -6.7851  -19.4011   21.1494 C   0  0  0  0  0  0  0  0  0  0  0  0
   -6.8916  -18.9601   22.4233 C   0  0  0  0  0  0  0  0  0  0  0  0
   -6.2106  -17.8550   22.5037 C   0  0  0  0  0  0  0  0  0  0  0  0
   -5.6325  -17.3421   21.3703 N   0  0  0  0  0  0  0  0  0  0  0  0
   -4.4342  -17.1126   17.9306 C   0  0  0  0  0  0  0  0  0  0  0  0
   -5.4496  -15.8911   16.9257 C   0  0  0  0  0  0  0  0  0  0  0  0
   -7.4880  -10.3034   13.8702 C   0  0  0  0  0  0  0  0  0  0  0  0
   -6.1164  -10.2403   13.5900 N   0  0  0  0  0  0  0  0  0  0  0  0
   -5.5776   -8.8561   12.8411 C   0  0  0  0  0  0  0  0  0  0  0  0
   -4.4346   -8.5691   12.0295 C   0  0  0  0  0  0  0  0  0  0  0  0
   -4.1756   -7.2931   11.6387 C   0  0  0  0  0  0  0  0  0  0  0  0
   -5.0023   -6.3362   12.1551 C   0  0  0  0  0  0  0  0  0  0  0  0
   -6.1507   -6.5469   12.9112 C   0  0  0  0  0  0  0  0  0  0  0  0
   -6.5226   -7.8919   13.0506 C   0  0  0  0  0  0  0  0  0  0  0  0
   -8.1782   -8.8596   13.8903 S   0  0  0  0  0  0  0  0  0  0  0  0
   -9.5907  -11.6102   12.5597 H   0  0  0  0  0  0  0  0  0  0  0  0
   -8.1967  -12.6048   12.4289 H   0  0  0  0  0  0  0  0  0  0  0  0
   -9.4117  -13.1069   13.5086 H   0  0  0  0  0  0  0  0  0  0  0  0
   -9.3964  -11.9673   15.7005 H   0  0  0  0  0  0  0  0  0  0  0  0
   -8.7244  -12.9742   15.2520 H   0  0  0  0  0  0  0  0  0  0  0  0
   -7.9288  -17.2818   17.2423 H   0  0  0  0  0  0  0  0  0  0  0  0
   -8.1118  -16.1699   18.3609 H   0  0  0  0  0  0  0  0  0  0  0  0
   -6.8918  -18.4474   18.6587 H   0  0  0  0  0  0  0  0  0  0  0  0
   -6.8771  -16.9261   19.7409 H   0  0  0  0  0  0  0  0  0  0  0  0
   -5.6164  -19.8360   19.3987 H   0  0  0  0  0  0  0  0  0  0  0  0
   -7.6529  -19.8813   20.7904 H   0  0  0  0  0  0  0  0  0  0  0  0
   -7.5560  -19.3601   23.1577 H   0  0  0  0  0  0  0  0  0  0  0  0
   -6.1169  -17.3337   23.4413 H   0  0  0  0  0  0  0  0  0  0  0  0
   -4.1925  -18.0110   17.3614 H   0  0  0  0  0  0  0  0  0  0  0  0
   -3.4492  -16.6952   18.1387 H   0  0  0  0  0  0  0  0  0  0  0  0
   -5.0004  -15.1770   17.5771 H   0  0  0  0  0  0  0  0  0  0  0  0
   -5.0381  -16.1263   15.9494 H   0  0  0  0  0  0  0  0  0  0  0  0
   -3.7934   -9.3472   11.6448 H   0  0  0  0  0  0  0  0  0  0  0  0
   -3.3296   -7.0535   11.0046 H   0  0  0  0  0  0  0  0  0  0  0  0
   -4.7621   -5.3617   11.8852 H   0  0  0  0  0  0  0  0  0  0  0  0
   -6.7344   -5.7592   13.3594 H   0  0  0  0  0  0  0  0  0  0  0  0
  1  2  1  0
  2  3  1  0
  3  4  1  0
  4  5  2  0
  4  6  1  0
  6  7  1  0
  7  8  1  0
  8  9  1  0
  9 10  1  0
 10 11  2  0
 11 12  1  0
 12 13  2  0
 13 14  1  0
 14 15  2  0
  9 16  1  0
 16 17  1  0
  2 18  1  0
 18 19  2  0
 19 20  1  0
 20 21  2  0
 21 22  1  0
 22 23  2  0
 23 24  1  0
 24 25  2  0
 25 26  1  0
 17  6  1  0
 26 18  1  0
 15 10  1  0
 25 20  1  0
  1 27  1  0
  1 28  1  0
  1 29  1  0
  3 30  1  0
  3 31  1  0
  7 32  1  0
  7 33  1  0
  8 34  1  0
  8 35  1  0
 11 36  1  0
 12 37  1  0
 13 38  1  0
 14 39  1  0
 16 40  1  0
 16 41  1  0
 17 42  1  0
 17 43  1  0
 21 44  1  0
 22 45  1  0
 23 46  1  0
 24 47  1  0
M  END
>  <Energy>  (1154) 
781.32787231622171

>  <compound_id>  (1154) 
11052

>  <target_id>  (1154) 
1

>  <reference_id>  (1154) 
69

>  <inspiration_ids>  (1154) 
[69, 82]

>  <energy_score>  (1154) 
631.8078574753029

>  <distance_score>  (1154) 
11.230828034581538

>  <path>  (1154) 
/opt/xchem-fragalysis-2/maxwin/BulkDock/SCRATCH/511020/C11052-P69/C11052-P69.minimised.mol

>  <scratch_subdir>  (1154) 
/opt/xchem-fragalysis-2/maxwin/BulkDock/SCRATCH/511020/C11052-P69

>  <fragmenstein_runtime>  (1154) 
36.602800369262695

>  <fragmenstein_outcome>  (1154) 
too moved

>  <fragmenstein_mode>  (1154) 
expansion

>  <fragmenstein_error>  (1154) 


$$$$
C11052-P82
     RDKit          3D

 47 50  0  0  0  0  0  0  0  0999 V2000
   -8.9064  -12.1537   13.8510 C   0  0  0  0  0  0  0  0  0  0  0  0
   -8.4765  -11.1906   14.9002 N   0  0  0  0  0  0  0  0  0  0  0  0
   -8.0819  -11.9788   16.7078 C   0  0  0  0  0  0  0  0  0  0  0  0
   -8.9873  -12.8225   18.0201 C   0  0  0  0  0  0  0  0  0  0  0  0
  -10.0860  -12.3765   18.2765 O   0  0  0  0  0  0  0  0  0  0  0  0
   -8.1759  -14.2770   18.6251 N   0  0  0  0  0  0  0  0  0  0  0  0
   -8.6799  -15.2982   19.7552 C   0  0  0  0  0  0  0  0  0  0  0  0
   -7.5259  -16.4787   20.7811 C   0  0  0  0  0  0  0  0  0  0  0  0
   -6.7876  -17.6907   20.2971 N   0  0  0  0  0  0  0  0  0  0  0  0
   -6.7932  -18.5889   21.4177 C   0  0  0  0  0  0  0  0  0  0  0  0
   -6.2678  -18.3528   22.6263 C   0  0  0  0  0  0  0  0  0  0  0  0
   -6.1959  -19.2118   23.8229 C   0  0  0  0  0  0  0  0  0  0  0  0
   -6.7869  -20.4194   23.8958 C   0  0  0  0  0  0  0  0  0  0  0  0
   -7.7705  -20.2518   23.0507 C   0  0  0  0  0  0  0  0  0  0  0  0
   -7.6016  -19.4937   21.8094 N   0  0  0  0  0  0  0  0  0  0  0  0
   -7.0026  -17.5564   18.7100 C   0  0  0  0  0  0  0  0  0  0  0  0
   -8.1520  -16.0755   17.9476 C   0  0  0  0  0  0  0  0  0  0  0  0
   -7.4336  -10.0318   14.0939 C   0  0  0  0  0  0  0  0  0  0  0  0
   -7.3649   -8.8702   13.3591 N   0  0  0  0  0  0  0  0  0  0  0  0
   -5.8377   -8.4097   12.4744 C   0  0  0  0  0  0  0  0  0  0  0  0
   -5.4882   -7.6512   11.2578 C   0  0  0  0  0  0  0  0  0  0  0  0
   -4.2007   -7.0851   11.0299 C   0  0  0  0  0  0  0  0  0  0  0  0
   -3.1487   -7.4318   11.8139 C   0  0  0  0  0  0  0  0  0  0  0  0
   -3.3943   -8.4275   12.7304 C   0  0  0  0  0  0  0  0  0  0  0  0
   -4.7385   -9.0170   12.9360 C   0  0  0  0  0  0  0  0  0  0  0  0
   -5.4803  -10.4670   13.6962 S   0  0  0  0  0  0  0  0  0  0  0  0
   -9.4954  -12.9630   14.2695 H   0  0  0  0  0  0  0  0  0  0  0  0
   -8.0684  -12.6000   13.3108 H   0  0  0  0  0  0  0  0  0  0  0  0
   -9.4324  -11.6300   13.0521 H   0  0  0  0  0  0  0  0  0  0  0  0
   -7.3149  -11.3567   17.2619 H   0  0  0  0  0  0  0  0  0  0  0  0
   -7.9306  -13.0242   16.4666 H   0  0  0  0  0  0  0  0  0  0  0  0
   -9.6202  -15.6977   19.3928 H   0  0  0  0  0  0  0  0  0  0  0  0
   -8.6206  -14.3389   20.2856 H   0  0  0  0  0  0  0  0  0  0  0  0
   -7.9096  -16.7045   21.7520 H   0  0  0  0  0  0  0  0  0  0  0  0
   -6.5618  -16.1251   20.6782 H   0  0  0  0  0  0  0  0  0  0  0  0
   -5.5922  -17.5655   22.5993 H   0  0  0  0  0  0  0  0  0  0  0  0
   -5.5746  -18.9243   24.6656 H   0  0  0  0  0  0  0  0  0  0  0  0
   -6.7132  -21.1233   24.7002 H   0  0  0  0  0  0  0  0  0  0  0  0
   -8.6779  -20.8536   23.0814 H   0  0  0  0  0  0  0  0  0  0  0  0
   -5.9249  -17.4896   18.4837 H   0  0  0  0  0  0  0  0  0  0  0  0
   -7.2317  -18.5106   18.2458 H   0  0  0  0  0  0  0  0  0  0  0  0
   -7.5863  -15.9757   17.0026 H   0  0  0  0  0  0  0  0  0  0  0  0
   -9.0969  -16.3828   17.6015 H   0  0  0  0  0  0  0  0  0  0  0  0
   -6.1951   -7.6141   10.4454 H   0  0  0  0  0  0  0  0  0  0  0  0
   -3.9833   -6.3651   10.2521 H   0  0  0  0  0  0  0  0  0  0  0  0
   -2.1574   -7.0163   11.6795 H   0  0  0  0  0  0  0  0  0  0  0  0
   -2.5548   -8.7383   13.3522 H   0  0  0  0  0  0  0  0  0  0  0  0
  1  2  1  0
  2  3  1  0
  3  4  1  0
  4  5  2  0
  4  6  1  0
  6  7  1  0
  7  8  1  0
  8  9  1  0
  9 10  1  0
 10 11  2  0
 11 12  1  0
 12 13  2  0
 13 14  1  0
 14 15  2  0
  9 16  1  0
 16 17  1  0
  2 18  1  0
 18 19  2  0
 19 20  1  0
 20 21  2  0
 21 22  1  0
 22 23  2  0
 23 24  1  0
 24 25  2  0
 25 26  1  0
 17  6  1  0
 26 18  1  0
 15 10  1  0
 25 20  1  0
  1 27  1  0
  1 28  1  0
  1 29  1  0
  3 30  1  0
  3 31  1  0
  7 32  1  0
  7 33  1  0
  8 34  1  0
  8 35  1  0
 11 36  1  0
 12 37  1  0
 13 38  1  0
 14 39  1  0
 16 40  1  0
 16 41  1  0
 17 42  1  0
 17 43  1  0
 21 44  1  0
 22 45  1  0
 23 46  1  0
 24 47  1  0
M  END
>  <Energy>  (1155) 
839.79147325888607

>  <compound_id>  (1155) 
11052

>  <target_id>  (1155) 
1

>  <reference_id>  (1155) 
82

>  <inspiration_ids>  (1155) 
[69, 82]

>  <energy_score>  (1155) 
690.2714584179694

>  <distance_score>  (1155) 
10.563588908126267

>  <path>  (1155) 
/opt/xchem-fragalysis-2/maxwin/BulkDock/SCRATCH/511020/C11052-P82/C11052-P82.minimised.mol

>  <scratch_subdir>  (1155) 
/opt/xchem-fragalysis-2/maxwin/BulkDock/SCRATCH/511020/C11052-P82

>  <fragmenstein_runtime>  (1155) 
25.866923093795776

>  <fragmenstein_outcome>  (1155) 
too moved

>  <fragmenstein_mode>  (1155) 
expansion

>  <fragmenstein_error>  (1155) 


$$$$
C6747-P69
     RDKit          3D

 37 40  0  0  0  0  0  0  0  0999 V2000
   -0.9126   -9.3795   14.7785 C   0  0  0  0  0  0  0  0  0  0  0  0
   -0.1114   -9.2747   15.9874 C   0  0  0  0  0  0  0  0  0  0  0  0
   -0.6835   -9.4981   17.3756 C   0  0  0  0  0  0  0  0  0  0  0  0
   -2.0984   -9.9116   17.6760 C   0  0  0  0  0  0  0  0  0  0  0  0
   -2.7057  -11.0357   19.0466 S   0  0  0  0  0  0  0  0  0  0  0  0
   -4.3774  -11.4615   18.1702 C   0  0  0  0  0  0  0  0  0  0  0  0
   -5.7830  -12.2211   18.7052 N   0  0  0  0  0  0  0  0  0  0  0  0
   -6.6115  -12.0176   19.8941 C   0  0  0  0  0  0  0  0  0  0  0  0
   -8.1690  -13.2668   20.2251 C   0  0  0  0  0  0  0  0  0  0  0  0
   -8.6199  -14.7562   19.5023 N   0  0  0  0  0  0  0  0  0  0  0  0
   -7.7283  -16.1983   20.4591 C   0  0  0  0  0  0  0  0  0  0  0  0
   -6.6907  -17.0885   19.8179 C   0  0  0  0  0  0  0  0  0  0  0  0
   -5.8954  -18.1358   20.4121 C   0  0  0  0  0  0  0  0  0  0  0  0
   -5.9637  -18.5593   21.6751 N   0  0  0  0  0  0  0  0  0  0  0  0
   -6.9346  -17.9728   22.3554 C   0  0  0  0  0  0  0  0  0  0  0  0
   -7.7733  -16.9072   21.8571 C   0  0  0  0  0  0  0  0  0  0  0  0
   -7.9921  -13.4310   18.1955 C   0  0  0  0  0  0  0  0  0  0  0  0
   -7.1607  -12.1608   18.1354 C   0  0  0  0  0  0  0  0  0  0  0  0
   -4.3277  -10.6300   17.0825 N   0  0  0  0  0  0  0  0  0  0  0  0
   -3.0821   -9.9002   16.6490 C   0  0  0  0  0  0  0  0  0  0  0  0
   -2.5324   -9.6831   15.0191 C   0  0  0  0  0  0  0  0  0  0  0  0
   -0.5725   -9.1297   13.7835 H   0  0  0  0  0  0  0  0  0  0  0  0
    0.9429   -9.0245   15.9034 H   0  0  0  0  0  0  0  0  0  0  0  0
    0.0275   -9.5323   18.2005 H   0  0  0  0  0  0  0  0  0  0  0  0
   -6.9238  -10.9607   19.7406 H   0  0  0  0  0  0  0  0  0  0  0  0
   -6.2088  -11.5484   20.8257 H   0  0  0  0  0  0  0  0  0  0  0  0
   -8.9723  -12.7396   19.7126 H   0  0  0  0  0  0  0  0  0  0  0  0
   -8.8038  -13.1098   21.1074 H   0  0  0  0  0  0  0  0  0  0  0  0
   -6.6618  -17.2048   18.7400 H   0  0  0  0  0  0  0  0  0  0  0  0
   -5.2116  -18.6974   19.7773 H   0  0  0  0  0  0  0  0  0  0  0  0
   -7.0845  -18.3604   23.3620 H   0  0  0  0  0  0  0  0  0  0  0  0
   -8.4218  -16.8340   22.7020 H   0  0  0  0  0  0  0  0  0  0  0  0
   -8.8979  -12.7681   18.0425 H   0  0  0  0  0  0  0  0  0  0  0  0
   -7.5174  -13.9503   17.3500 H   0  0  0  0  0  0  0  0  0  0  0  0
   -7.8759  -11.6077   18.6938 H   0  0  0  0  0  0  0  0  0  0  0  0
   -7.3179  -11.3990   17.3897 H   0  0  0  0  0  0  0  0  0  0  0  0
   -3.1182   -9.2614   14.2539 H   0  0  0  0  0  0  0  0  0  0  0  0
  1  2  2  0
  2  3  1  0
  3  4  2  0
  4  5  1  0
  5  6  1  0
  6  7  1  0
  7  8  1  0
  8  9  1  0
  9 10  1  0
 10 11  1  0
 11 12  2  0
 12 13  1  0
 13 14  2  0
 14 15  1  0
 15 16  2  0
 10 17  1  0
 17 18  1  0
  6 19  2  0
 19 20  1  0
 20 21  2  0
 21  1  1  0
 20  4  1  0
 18  7  1  0
 16 11  1  0
  1 22  1  0
  2 23  1  0
  3 24  1  0
  8 25  1  0
  8 26  1  0
  9 27  1  0
  9 28  1  0
 12 29  1  0
 13 30  1  0
 15 31  1  0
 16 32  1  0
 17 33  1  0
 17 34  1  0
 18 35  1  0
 18 36  1  0
 21 37  1  0
M  END
>  <Energy>  (1156) 
815.63575383345665

>  <compound_id>  (1156) 
6747

>  <target_id>  (1156) 
1

>  <reference_id>  (1156) 
69

>  <inspiration_ids>  (1156) 
[69, 82]

>  <energy_score>  (1156) 
662.0342922615048

>  <distance_score>  (1156) 
13.960857127279581

>  <path>  (1156) 
/opt/xchem-fragalysis-2/maxwin/BulkDock/SCRATCH/511020/C6747-P69/C6747-P69.minimised.mol

>  <scratch_subdir>  (1156) 
/opt/xchem-fragalysis-2/maxwin/BulkDock/SCRATCH/511020/C6747-P69

>  <fragmenstein_runtime>  (1156) 
14.537822961807251

>  <fragmenstein_outcome>  (1156) 
too moved

>  <fragmenstein_mode>  (1156) 
expansion

>  <fragmenstein_error>  (1156) 


$$$$
C6747-P82
     RDKit          3D

 37 40  0  0  0  0  0  0  0  0999 V2000
   -3.9436   -6.9863   10.7960 C   0  0  0  0  0  0  0  0  0  0  0  0
   -2.9264   -7.8357   10.9379 C   0  0  0  0  0  0  0  0  0  0  0  0
   -3.1988   -8.9102   11.7435 C   0  0  0  0  0  0  0  0  0  0  0  0
   -4.4773   -9.1335   12.5359 C   0  0  0  0  0  0  0  0  0  0  0  0
   -5.3815  -10.4857   13.6428 S   0  0  0  0  0  0  0  0  0  0  0  0
   -7.1763   -9.8595   14.5745 C   0  0  0  0  0  0  0  0  0  0  0  0
   -6.7691   -9.9833   16.3787 N   0  0  0  0  0  0  0  0  0  0  0  0
   -7.6661   -9.1171   17.5727 C   0  0  0  0  0  0  0  0  0  0  0  0
   -8.4457  -10.1966   19.0958 C   0  0  0  0  0  0  0  0  0  0  0  0
   -9.3640  -11.9813   19.4461 N   0  0  0  0  0  0  0  0  0  0  0  0
   -9.6685  -12.6715   21.3584 C   0  0  0  0  0  0  0  0  0  0  0  0
   -9.8059  -11.5165   22.7134 C   0  0  0  0  0  0  0  0  0  0  0  0
  -10.9920  -11.4759   23.7265 C   0  0  0  0  0  0  0  0  0  0  0  0
  -11.9309  -12.4123   24.0024 N   0  0  0  0  0  0  0  0  0  0  0  0
  -11.9828  -13.3719   23.0916 C   0  0  0  0  0  0  0  0  0  0  0  0
  -11.2224  -13.3658   21.8064 C   0  0  0  0  0  0  0  0  0  0  0  0
   -7.9274  -12.4905   18.7105 C   0  0  0  0  0  0  0  0  0  0  0  0
   -6.9881  -11.3934   17.5716 C   0  0  0  0  0  0  0  0  0  0  0  0
   -6.9944   -8.8510   13.4088 N   0  0  0  0  0  0  0  0  0  0  0  0
   -5.5549   -8.4688   12.2356 C   0  0  0  0  0  0  0  0  0  0  0  0
   -5.2053   -7.3471   11.3130 C   0  0  0  0  0  0  0  0  0  0  0  0
   -3.7865   -6.0549   10.2635 H   0  0  0  0  0  0  0  0  0  0  0  0
   -1.9563   -7.6790   10.4826 H   0  0  0  0  0  0  0  0  0  0  0  0
   -2.3257   -9.5614   11.8022 H   0  0  0  0  0  0  0  0  0  0  0  0
   -7.8171   -8.1319   18.0636 H   0  0  0  0  0  0  0  0  0  0  0  0
   -6.7385   -8.4702   17.5838 H   0  0  0  0  0  0  0  0  0  0  0  0
   -7.5570  -10.5185   19.5078 H   0  0  0  0  0  0  0  0  0  0  0  0
   -8.9267   -9.3245   19.5044 H   0  0  0  0  0  0  0  0  0  0  0  0
   -9.0537  -10.7670   22.9922 H   0  0  0  0  0  0  0  0  0  0  0  0
  -11.2326  -10.6017   24.2945 H   0  0  0  0  0  0  0  0  0  0  0  0
  -12.7137  -14.1579   23.2886 H   0  0  0  0  0  0  0  0  0  0  0  0
  -11.7488  -14.1748   21.3338 H   0  0  0  0  0  0  0  0  0  0  0  0
   -7.1925  -12.7614   19.4631 H   0  0  0  0  0  0  0  0  0  0  0  0
   -8.1383  -13.3633   18.1553 H   0  0  0  0  0  0  0  0  0  0  0  0
   -7.7695  -11.8099   16.9202 H   0  0  0  0  0  0  0  0  0  0  0  0
   -5.9478  -11.7337   17.7089 H   0  0  0  0  0  0  0  0  0  0  0  0
   -5.7858   -6.4596   11.2643 H   0  0  0  0  0  0  0  0  0  0  0  0
  1  2  2  0
  2  3  1  0
  3  4  2  0
  4  5  1  0
  5  6  1  0
  6  7  1  0
  7  8  1  0
  8  9  1  0
  9 10  1  0
 10 11  1  0
 11 12  2  0
 12 13  1  0
 13 14  2  0
 14 15  1  0
 15 16  2  0
 10 17  1  0
 17 18  1  0
  6 19  2  0
 19 20  1  0
 20 21  2  0
 21  1  1  0
 20  4  1  0
 18  7  1  0
 16 11  1  0
  1 22  1  0
  2 23  1  0
  3 24  1  0
  8 25  1  0
  8 26  1  0
  9 27  1  0
  9 28  1  0
 12 29  1  0
 13 30  1  0
 15 31  1  0
 16 32  1  0
 17 33  1  0
 17 34  1  0
 18 35  1  0
 18 36  1  0
 21 37  1  0
M  END
>  <Energy>  (1157) 
1179.2913379156746

>  <compound_id>  (1157) 
6747

>  <target_id>  (1157) 
1

>  <reference_id>  (1157) 
82

>  <inspiration_ids>  (1157) 
[69, 82]

>  <energy_score>  (1157) 
1025.6898763437387

>  <distance_score>  (1157) 
12.532883238330959

>  <path>  (1157) 
/opt/xchem-fragalysis-2/maxwin/BulkDock/SCRATCH/511020/C6747-P82/C6747-P82.minimised.mol

>  <scratch_subdir>  (1157) 
/opt/xchem-fragalysis-2/maxwin/BulkDock/SCRATCH/511020/C6747-P82

>  <fragmenstein_runtime>  (1157) 
22.341777086257935

>  <fragmenstein_outcome>  (1157) 
too moved

>  <fragmenstein_mode>  (1157) 
expansion

>  <fragmenstein_error>  (1157) 


$$$$
C11053-P69
     RDKit          3D

 37 40  0  0  0  0  0  0  0  0999 V2000
   -8.8378  -15.8826   26.5224 C   0  0  0  0  0  0  0  0  0  0  0  0
   -9.7999  -16.5328   25.8351 C   0  0  0  0  0  0  0  0  0  0  0  0
   -9.5834  -16.3088   24.1144 C   0  0  0  0  0  0  0  0  0  0  0  0
   -8.0566  -16.4250   22.6569 C   0  0  0  0  0  0  0  0  0  0  0  0
   -8.0044  -15.4470   20.9421 N   0  0  0  0  0  0  0  0  0  0  0  0
   -8.7389  -14.8104   19.2702 C   0  0  0  0  0  0  0  0  0  0  0  0
   -8.3682  -12.9714   18.2523 C   0  0  0  0  0  0  0  0  0  0  0  0
   -7.3246  -11.6550   17.9074 N   0  0  0  0  0  0  0  0  0  0  0  0
   -6.7257  -10.3431   16.6794 C   0  0  0  0  0  0  0  0  0  0  0  0
   -6.7320   -8.9608   17.0757 N   0  0  0  0  0  0  0  0  0  0  0  0
   -6.8798   -7.4255   16.4816 C   0  0  0  0  0  0  0  0  0  0  0  0
   -6.6741   -6.1489   17.1190 C   0  0  0  0  0  0  0  0  0  0  0  0
   -6.7314   -4.9409   16.4293 C   0  0  0  0  0  0  0  0  0  0  0  0
   -6.8746   -4.9529   15.0683 C   0  0  0  0  0  0  0  0  0  0  0  0
   -7.0627   -6.1596   14.3808 C   0  0  0  0  0  0  0  0  0  0  0  0
   -7.2498   -7.4322   15.0726 C   0  0  0  0  0  0  0  0  0  0  0  0
   -7.8551   -9.6203   14.7294 S   0  0  0  0  0  0  0  0  0  0  0  0
   -6.8704  -12.1780   19.2743 C   0  0  0  0  0  0  0  0  0  0  0  0
   -8.0630  -13.5402   20.2003 C   0  0  0  0  0  0  0  0  0  0  0  0
   -7.0648  -16.0484   24.0369 N   0  0  0  0  0  0  0  0  0  0  0  0
   -7.8421  -15.4629   25.5694 C   0  0  0  0  0  0  0  0  0  0  0  0
   -8.9598  -15.4611   27.5072 H   0  0  0  0  0  0  0  0  0  0  0  0
  -10.8015  -16.7635   26.1884 H   0  0  0  0  0  0  0  0  0  0  0  0
  -10.7464  -16.5054   23.8674 H   0  0  0  0  0  0  0  0  0  0  0  0
   -8.3640  -15.5941   18.5643 H   0  0  0  0  0  0  0  0  0  0  0  0
   -9.7864  -15.0501   19.2852 H   0  0  0  0  0  0  0  0  0  0  0  0
   -9.3506  -12.4660   18.2593 H   0  0  0  0  0  0  0  0  0  0  0  0
   -7.8224  -13.3945   17.4131 H   0  0  0  0  0  0  0  0  0  0  0  0
   -6.5044   -6.0741   18.1881 H   0  0  0  0  0  0  0  0  0  0  0  0
   -6.5831   -4.0042   16.9605 H   0  0  0  0  0  0  0  0  0  0  0  0
   -6.7805   -4.0117   14.5423 H   0  0  0  0  0  0  0  0  0  0  0  0
   -6.8420   -6.1086   13.3174 H   0  0  0  0  0  0  0  0  0  0  0  0
   -5.8562  -12.4898   19.0663 H   0  0  0  0  0  0  0  0  0  0  0  0
   -6.6056  -11.3801   19.9430 H   0  0  0  0  0  0  0  0  0  0  0  0
   -8.9715  -13.0891   20.5930 H   0  0  0  0  0  0  0  0  0  0  0  0
   -7.0836  -13.4028   20.4865 H   0  0  0  0  0  0  0  0  0  0  0  0
   -7.4458  -14.4921   25.8437 H   0  0  0  0  0  0  0  0  0  0  0  0
  1  2  2  0
  2  3  1  0
  3  4  2  0
  4  5  1  0
  5  6  1  0
  6  7  1  0
  7  8  1  0
  8  9  1  0
  9 10  2  0
 10 11  1  0
 11 12  2  0
 12 13  1  0
 13 14  2  0
 14 15  1  0
 15 16  2  0
 16 17  1  0
  8 18  1  0
 18 19  1  0
  4 20  1  0
 20 21  2  0
 21  1  1  0
 19  5  1  0
 17  9  1  0
 16 11  1  0
  1 22  1  0
  2 23  1  0
  3 24  1  0
  6 25  1  0
  6 26  1  0
  7 27  1  0
  7 28  1  0
 12 29  1  0
 13 30  1  0
 14 31  1  0
 15 32  1  0
 18 33  1  0
 18 34  1  0
 19 35  1  0
 19 36  1  0
 21 37  1  0
M  END
>  <Energy>  (1158) 
1675.6318230795248

>  <compound_id>  (1158) 
11053

>  <target_id>  (1158) 
1

>  <reference_id>  (1158) 
69

>  <inspiration_ids>  (1158) 
[69, 82]

>  <energy_score>  (1158) 
1541.388701656683

>  <distance_score>  (1158) 
10.849616308101957

>  <path>  (1158) 
/opt/xchem-fragalysis-2/maxwin/BulkDock/SCRATCH/511020/C11053-P69/C11053-P69.minimised.mol

>  <scratch_subdir>  (1158) 
/opt/xchem-fragalysis-2/maxwin/BulkDock/SCRATCH/511020/C11053-P69

>  <fragmenstein_runtime>  (1158) 
14.235063791275024

>  <fragmenstein_outcome>  (1158) 
too moved

>  <fragmenstein_mode>  (1158) 
expansion

>  <fragmenstein_error>  (1158) 


$$$$
C11053-P82
     RDKit          3D

 37 40  0  0  0  0  0  0  0  0999 V2000
   -9.7246  -19.2247   24.3177 C   0  0  0  0  0  0  0  0  0  0  0  0
  -10.3081  -17.7925   24.8288 C   0  0  0  0  0  0  0  0  0  0  0  0
   -9.7031  -16.4898   23.8955 C   0  0  0  0  0  0  0  0  0  0  0  0
   -8.2204  -16.7381   22.3589 C   0  0  0  0  0  0  0  0  0  0  0  0
   -8.1763  -15.6728   20.6883 N   0  0  0  0  0  0  0  0  0  0  0  0
   -9.2148  -15.0481   19.2382 C   0  0  0  0  0  0  0  0  0  0  0  0
   -9.6220  -13.0607   18.6900 C   0  0  0  0  0  0  0  0  0  0  0  0
   -8.6172  -12.4156   17.3091 N   0  0  0  0  0  0  0  0  0  0  0  0
   -8.7801  -12.1383   15.5095 C   0  0  0  0  0  0  0  0  0  0  0  0
   -8.6150  -10.9979   14.7412 N   0  0  0  0  0  0  0  0  0  0  0  0
   -8.5232  -10.9876   13.3574 C   0  0  0  0  0  0  0  0  0  0  0  0
   -8.0002   -9.9667   12.5380 C   0  0  0  0  0  0  0  0  0  0  0  0
   -8.0892  -10.0626   11.1458 C   0  0  0  0  0  0  0  0  0  0  0  0
   -8.7443  -11.1375   10.5746 C   0  0  0  0  0  0  0  0  0  0  0  0
   -9.2155  -12.1816   11.3811 C   0  0  0  0  0  0  0  0  0  0  0  0
   -9.0191  -12.1200   12.7805 C   0  0  0  0  0  0  0  0  0  0  0  0
   -9.2922  -13.3066   14.0325 S   0  0  0  0  0  0  0  0  0  0  0  0
   -7.6513  -13.0649   18.0899 C   0  0  0  0  0  0  0  0  0  0  0  0
   -8.0433  -13.7868   19.9218 C   0  0  0  0  0  0  0  0  0  0  0  0
   -7.7080  -18.2164   22.2964 N   0  0  0  0  0  0  0  0  0  0  0  0
   -8.3564  -19.4151   23.2955 C   0  0  0  0  0  0  0  0  0  0  0  0
  -10.4417  -20.0443   24.4180 H   0  0  0  0  0  0  0  0  0  0  0  0
  -11.2616  -17.7099   25.3412 H   0  0  0  0  0  0  0  0  0  0  0  0
  -10.9560  -16.4201   23.4792 H   0  0  0  0  0  0  0  0  0  0  0  0
  -10.1010  -15.6366   19.3044 H   0  0  0  0  0  0  0  0  0  0  0  0
   -8.6496  -15.5862   18.4421 H   0  0  0  0  0  0  0  0  0  0  0  0
   -9.2848  -12.2813   19.3014 H   0  0  0  0  0  0  0  0  0  0  0  0
  -10.5758  -12.8075   18.2780 H   0  0  0  0  0  0  0  0  0  0  0  0
   -7.5197   -9.1175   13.0062 H   0  0  0  0  0  0  0  0  0  0  0  0
   -7.6692   -9.2877   10.5137 H   0  0  0  0  0  0  0  0  0  0  0  0
   -8.8579  -11.1955    9.4951 H   0  0  0  0  0  0  0  0  0  0  0  0
   -9.6771  -13.0550   10.9295 H   0  0  0  0  0  0  0  0  0  0  0  0
   -7.4735  -13.8215   17.3093 H   0  0  0  0  0  0  0  0  0  0  0  0
   -6.8410  -12.3463   18.2741 H   0  0  0  0  0  0  0  0  0  0  0  0
   -7.3576  -12.9616   20.1367 H   0  0  0  0  0  0  0  0  0  0  0  0
   -7.0300  -13.8228   20.1651 H   0  0  0  0  0  0  0  0  0  0  0  0
   -7.9829  -20.4006   23.0144 H   0  0  0  0  0  0  0  0  0  0  0  0
  1  2  2  0
  2  3  1  0
  3  4  2  0
  4  5  1  0
  5  6  1  0
  6  7  1  0
  7  8  1  0
  8  9  1  0
  9 10  2  0
 10 11  1  0
 11 12  2  0
 12 13  1  0
 13 14  2  0
 14 15  1  0
 15 16  2  0
 16 17  1  0
  8 18  1  0
 18 19  1  0
  4 20  1  0
 20 21  2  0
 21  1  1  0
 19  5  1  0
 17  9  1  0
 16 11  1  0
  1 22  1  0
  2 23  1  0
  3 24  1  0
  6 25  1  0
  6 26  1  0
  7 27  1  0
  7 28  1  0
 12 29  1  0
 13 30  1  0
 14 31  1  0
 15 32  1  0
 18 33  1  0
 18 34  1  0
 19 35  1  0
 19 36  1  0
 21 37  1  0
M  END
>  <Energy>  (1159) 
1348.2965745284414

>  <compound_id>  (1159) 
11053

>  <target_id>  (1159) 
1

>  <reference_id>  (1159) 
82

>  <inspiration_ids>  (1159) 
[69, 82]

>  <energy_score>  (1159) 
1214.0534531055705

>  <distance_score>  (1159) 
11.513009347102027

>  <path>  (1159) 
/opt/xchem-fragalysis-2/maxwin/BulkDock/SCRATCH/511020/C11053-P82/C11053-P82.minimised.mol

>  <scratch_subdir>  (1159) 
/opt/xchem-fragalysis-2/maxwin/BulkDock/SCRATCH/511020/C11053-P82

>  <fragmenstein_runtime>  (1159) 
20.020231008529663

>  <fragmenstein_outcome>  (1159) 
too moved

>  <fragmenstein_mode>  (1159) 
expansion

>  <fragmenstein_error>  (1159) 


$$$$
C11054-P69
     RDKit          3D

 43 46  0  0  0  0  0  0  0  0999 V2000
   -6.2333  -13.5965   17.0650 O   0  0  0  0  0  0  0  0  0  0  0  0
   -7.4256  -13.6996   16.9317 C   0  0  0  0  0  0  0  0  0  0  0  0
   -8.3253  -11.9745   15.7766 C   0  0  0  0  0  0  0  0  0  0  0  0
   -7.8848   -9.9337   14.1699 S   0  0  0  0  0  0  0  0  0  0  0  0
   -6.9701   -8.3637   12.4613 C   0  0  0  0  0  0  0  0  0  0  0  0
   -6.1813   -6.8401   11.8192 N   0  0  0  0  0  0  0  0  0  0  0  0
   -6.8596   -5.2912   10.7649 C   0  0  0  0  0  0  0  0  0  0  0  0
   -8.3126   -4.9355    9.7218 C   0  0  0  0  0  0  0  0  0  0  0  0
   -8.7492   -4.3191    8.4858 C   0  0  0  0  0  0  0  0  0  0  0  0
   -7.8848   -4.3608    7.5324 C   0  0  0  0  0  0  0  0  0  0  0  0
   -6.8738   -5.0454    8.1054 C   0  0  0  0  0  0  0  0  0  0  0  0
   -6.4736   -5.9481    9.6047 C   0  0  0  0  0  0  0  0  0  0  0  0
   -5.7782   -7.9635   10.4876 S   0  0  0  0  0  0  0  0  0  0  0  0
   -8.0519  -15.4868   17.6636 N   0  0  0  0  0  0  0  0  0  0  0  0
   -7.1247  -17.0087   18.3475 C   0  0  0  0  0  0  0  0  0  0  0  0
   -6.4571  -17.9901   19.5949 C   0  0  0  0  0  0  0  0  0  0  0  0
   -6.4612  -17.4145   20.9013 N   0  0  0  0  0  0  0  0  0  0  0  0
   -6.6566  -18.3992   21.9566 C   0  0  0  0  0  0  0  0  0  0  0  0
   -6.3087  -18.3206   23.2391 C   0  0  0  0  0  0  0  0  0  0  0  0
   -6.2790  -19.4630   24.1798 C   0  0  0  0  0  0  0  0  0  0  0  0
   -6.9881  -20.5455   24.0165 C   0  0  0  0  0  0  0  0  0  0  0  0
   -7.8465  -20.2120   23.0852 C   0  0  0  0  0  0  0  0  0  0  0  0
   -7.4008  -19.4508   21.9442 N   0  0  0  0  0  0  0  0  0  0  0  0
   -7.4196  -16.2221   20.9501 C   0  0  0  0  0  0  0  0  0  0  0  0
   -8.5352  -15.4745   19.4107 C   0  0  0  0  0  0  0  0  0  0  0  0
   -9.2471  -12.2251   15.2361 H   0  0  0  0  0  0  0  0  0  0  0  0
   -8.1166  -11.6219   16.7587 H   0  0  0  0  0  0  0  0  0  0  0  0
   -9.2755   -4.9663   10.3525 H   0  0  0  0  0  0  0  0  0  0  0  0
   -9.6825   -3.8407    8.3034 H   0  0  0  0  0  0  0  0  0  0  0  0
   -7.8989   -3.8441    6.5925 H   0  0  0  0  0  0  0  0  0  0  0  0
   -6.0694   -4.2973    7.8093 H   0  0  0  0  0  0  0  0  0  0  0  0
   -5.9948  -16.9516   18.2570 H   0  0  0  0  0  0  0  0  0  0  0  0
   -7.6266  -17.7063   17.6792 H   0  0  0  0  0  0  0  0  0  0  0  0
   -6.8707  -19.0010   19.5327 H   0  0  0  0  0  0  0  0  0  0  0  0
   -5.4000  -18.2150   19.3575 H   0  0  0  0  0  0  0  0  0  0  0  0
   -6.0680  -17.3388   23.5330 H   0  0  0  0  0  0  0  0  0  0  0  0
   -5.8167  -19.5871   25.1368 H   0  0  0  0  0  0  0  0  0  0  0  0
   -6.8881  -21.3792   24.6604 H   0  0  0  0  0  0  0  0  0  0  0  0
   -8.7763  -20.7605   22.9629 H   0  0  0  0  0  0  0  0  0  0  0  0
   -8.1226  -16.8307   21.5409 H   0  0  0  0  0  0  0  0  0  0  0  0
   -7.5939  -15.9025   21.9081 H   0  0  0  0  0  0  0  0  0  0  0  0
   -8.6516  -14.3521   19.5796 H   0  0  0  0  0  0  0  0  0  0  0  0
   -9.5952  -15.6076   19.4461 H   0  0  0  0  0  0  0  0  0  0  0  0
  1  2  2  0
  2  3  1  0
  3  4  1  0
  4  5  1  0
  5  6  2  0
  6  7  1  0
  7  8  2  0
  8  9  1  0
  9 10  2  0
 10 11  1  0
 11 12  2  0
 12 13  1  0
  2 14  1  0
 14 15  1  0
 15 16  1  0
 16 17  1  0
 17 18  1  0
 18 19  2  0
 19 20  1  0
 20 21  2  0
 21 22  1  0
 22 23  2  0
 17 24  1  0
 24 25  1  0
 13  5  1  0
 25 14  1  0
 12  7  1  0
 23 18  1  0
  3 26  1  0
  3 27  1  0
  8 28  1  0
  9 29  1  0
 10 30  1  0
 11 31  1  0
 15 32  1  0
 15 33  1  0
 16 34  1  0
 16 35  1  0
 19 36  1  0
 20 37  1  0
 21 38  1  0
 22 39  1  0
 24 40  1  0
 24 41  1  0
 25 42  1  0
 25 43  1  0
M  END
>  <Energy>  (1160) 
2118.5895612189806

>  <compound_id>  (1160) 
11054

>  <target_id>  (1160) 
1

>  <reference_id>  (1160) 
69

>  <inspiration_ids>  (1160) 
[69, 82]

>  <energy_score>  (1160) 
1963.6085113104268

>  <distance_score>  (1160) 
8.664906703593047

>  <path>  (1160) 
/opt/xchem-fragalysis-2/maxwin/BulkDock/SCRATCH/511020/C11054-P69/C11054-P69.minimised.mol

>  <scratch_subdir>  (1160) 
/opt/xchem-fragalysis-2/maxwin/BulkDock/SCRATCH/511020/C11054-P69

>  <fragmenstein_runtime>  (1160) 
25.646905660629272

>  <fragmenstein_outcome>  (1160) 
too moved

>  <fragmenstein_mode>  (1160) 
expansion

>  <fragmenstein_error>  (1160) 


$$$$
C11054-P82
     RDKit          3D

 43 46  0  0  0  0  0  0  0  0999 V2000
   -7.1473  -14.2370   16.6680 O   0  0  0  0  0  0  0  0  0  0  0  0
   -7.8151  -13.4281   17.3275 C   0  0  0  0  0  0  0  0  0  0  0  0
   -7.9877  -11.6531   16.2669 C   0  0  0  0  0  0  0  0  0  0  0  0
   -8.2466  -10.3714   14.0335 S   0  0  0  0  0  0  0  0  0  0  0  0
   -7.7837   -8.7677   12.2633 C   0  0  0  0  0  0  0  0  0  0  0  0
   -8.1755   -8.7716   10.5095 N   0  0  0  0  0  0  0  0  0  0  0  0
   -7.4764   -7.8049    8.9557 C   0  0  0  0  0  0  0  0  0  0  0  0
   -7.8891   -6.3474    7.6589 C   0  0  0  0  0  0  0  0  0  0  0  0
   -7.7740   -5.0154    7.2754 C   0  0  0  0  0  0  0  0  0  0  0  0
   -7.6519   -4.5626    8.4869 C   0  0  0  0  0  0  0  0  0  0  0  0
   -6.8798   -5.4859    9.4761 C   0  0  0  0  0  0  0  0  0  0  0  0
   -6.5425   -7.1544    9.7525 C   0  0  0  0  0  0  0  0  0  0  0  0
   -5.7740   -7.8272   11.3907 S   0  0  0  0  0  0  0  0  0  0  0  0
   -8.6204  -14.1228   18.9157 N   0  0  0  0  0  0  0  0  0  0  0  0
   -8.7246  -15.8472   19.6091 C   0  0  0  0  0  0  0  0  0  0  0  0
   -8.2126  -17.0988   21.2736 C   0  0  0  0  0  0  0  0  0  0  0  0
   -7.0260  -17.6979   20.9869 N   0  0  0  0  0  0  0  0  0  0  0  0
   -6.9799  -18.7263   22.0765 C   0  0  0  0  0  0  0  0  0  0  0  0
   -6.3833  -18.7940   23.2424 C   0  0  0  0  0  0  0  0  0  0  0  0
   -6.3152  -20.0091   24.1920 C   0  0  0  0  0  0  0  0  0  0  0  0
   -7.0235  -21.0997   23.9955 C   0  0  0  0  0  0  0  0  0  0  0  0
   -8.0611  -20.6637   23.3125 C   0  0  0  0  0  0  0  0  0  0  0  0
   -7.9256  -19.5705   22.4526 N   0  0  0  0  0  0  0  0  0  0  0  0
   -7.1269  -16.0811   20.6790 C   0  0  0  0  0  0  0  0  0  0  0  0
   -8.0622  -14.1407   20.1494 C   0  0  0  0  0  0  0  0  0  0  0  0
   -8.6675  -12.1273   15.5404 H   0  0  0  0  0  0  0  0  0  0  0  0
   -7.1039  -11.0088   16.6789 H   0  0  0  0  0  0  0  0  0  0  0  0
   -9.0620   -6.3223    7.4156 H   0  0  0  0  0  0  0  0  0  0  0  0
   -8.3242   -4.5301    6.4835 H   0  0  0  0  0  0  0  0  0  0  0  0
   -8.0646   -3.5865    8.7270 H   0  0  0  0  0  0  0  0  0  0  0  0
   -5.9389   -5.2239    9.0870 H   0  0  0  0  0  0  0  0  0  0  0  0
   -9.8020  -15.8985   19.4699 H   0  0  0  0  0  0  0  0  0  0  0  0
   -8.2949  -16.2782   18.6535 H   0  0  0  0  0  0  0  0  0  0  0  0
   -8.0305  -16.8487   22.3485 H   0  0  0  0  0  0  0  0  0  0  0  0
   -8.7567  -17.9145   21.4235 H   0  0  0  0  0  0  0  0  0  0  0  0
   -6.0587  -17.8204   23.4570 H   0  0  0  0  0  0  0  0  0  0  0  0
   -5.6929  -20.1519   25.0654 H   0  0  0  0  0  0  0  0  0  0  0  0
   -6.8333  -22.0329   24.4785 H   0  0  0  0  0  0  0  0  0  0  0  0
   -8.9809  -21.2197   23.1499 H   0  0  0  0  0  0  0  0  0  0  0  0
   -7.6666  -15.7058   21.4365 H   0  0  0  0  0  0  0  0  0  0  0  0
   -6.1044  -16.2425   20.5871 H   0  0  0  0  0  0  0  0  0  0  0  0
   -8.8931  -13.6437   20.6345 H   0  0  0  0  0  0  0  0  0  0  0  0
   -7.2773  -13.3745   19.9626 H   0  0  0  0  0  0  0  0  0  0  0  0
  1  2  2  0
  2  3  1  0
  3  4  1  0
  4  5  1  0
  5  6  2  0
  6  7  1  0
  7  8  2  0
  8  9  1  0
  9 10  2  0
 10 11  1  0
 11 12  2  0
 12 13  1  0
  2 14  1  0
 14 15  1  0
 15 16  1  0
 16 17  1  0
 17 18  1  0
 18 19  2  0
 19 20  1  0
 20 21  2  0
 21 22  1  0
 22 23  2  0
 17 24  1  0
 24 25  1  0
 13  5  1  0
 25 14  1  0
 12  7  1  0
 23 18  1  0
  3 26  1  0
  3 27  1  0
  8 28  1  0
  9 29  1  0
 10 30  1  0
 11 31  1  0
 15 32  1  0
 15 33  1  0
 16 34  1  0
 16 35  1  0
 19 36  1  0
 20 37  1  0
 21 38  1  0
 22 39  1  0
 24 40  1  0
 24 41  1  0
 25 42  1  0
 25 43  1  0
M  END
>  <Energy>  (1161) 
2158.181919741472

>  <compound_id>  (1161) 
11054

>  <target_id>  (1161) 
1

>  <reference_id>  (1161) 
82

>  <inspiration_ids>  (1161) 
[69, 82]

>  <energy_score>  (1161) 
2003.2008698329237

>  <distance_score>  (1161) 
8.649491305658884

>  <path>  (1161) 
/opt/xchem-fragalysis-2/maxwin/BulkDock/SCRATCH/511020/C11054-P82/C11054-P82.minimised.mol

>  <scratch_subdir>  (1161) 
/opt/xchem-fragalysis-2/maxwin/BulkDock/SCRATCH/511020/C11054-P82

>  <fragmenstein_runtime>  (1161) 
20.279608011245728

>  <fragmenstein_outcome>  (1161) 
too moved

>  <fragmenstein_mode>  (1161) 
expansion

>  <fragmenstein_error>  (1161) 


$$$$
C6748-P69
     RDKit          3D

 47 50  0  0  0  0  0  0  0  0999 V2000
  -14.5397   -2.8322   16.6922 O   0  0  0  0  0  0  0  0  0  0  0  0
  -14.1680   -2.0324   17.4690 C   0  0  0  0  0  0  0  0  0  0  0  0
  -13.3503   -0.8222   17.2707 N   0  0  0  0  0  0  0  0  0  0  0  0
  -12.6664   -0.2983   16.0554 C   0  0  0  0  0  0  0  0  0  0  0  0
  -13.5405    0.2025   14.8532 C   0  0  0  0  0  0  0  0  0  0  0  0
  -12.8742    0.4250   13.4760 C   0  0  0  0  0  0  0  0  0  0  0  0
  -12.6099   -0.6707   12.6501 C   0  0  0  0  0  0  0  0  0  0  0  0
  -12.0317   -0.5244   11.3668 C   0  0  0  0  0  0  0  0  0  0  0  0
  -11.6622    0.7369   10.8801 C   0  0  0  0  0  0  0  0  0  0  0  0
  -10.9876    0.9780    9.6933 N   0  0  0  0  0  0  0  0  0  0  0  0
  -10.6948    2.2536    9.6222 C   0  0  0  0  0  0  0  0  0  0  0  0
  -11.2626    3.2339   10.9109 S   0  0  0  0  0  0  0  0  0  0  0  0
  -11.9180    1.8395   11.6960 C   0  0  0  0  0  0  0  0  0  0  0  0
  -12.5518    1.7070   12.9714 C   0  0  0  0  0  0  0  0  0  0  0  0
  -14.4733   -1.9172   18.9657 N   0  0  0  0  0  0  0  0  0  0  0  0
  -13.4027   -2.6953   19.7922 C   0  0  0  0  0  0  0  0  0  0  0  0
  -13.2548   -2.6091   21.3871 C   0  0  0  0  0  0  0  0  0  0  0  0
  -14.4357   -3.2014   22.0594 N   0  0  0  0  0  0  0  0  0  0  0  0
  -14.5023   -3.7836   23.3335 C   0  0  0  0  0  0  0  0  0  0  0  0
  -15.6873   -4.3437   23.8604 C   0  0  0  0  0  0  0  0  0  0  0  0
  -15.6977   -5.0619   25.0607 C   0  0  0  0  0  0  0  0  0  0  0  0
  -14.6181   -5.2196   25.8309 N   0  0  0  0  0  0  0  0  0  0  0  0
  -13.4872   -4.6566   25.3733 C   0  0  0  0  0  0  0  0  0  0  0  0
  -13.3916   -3.9507   24.1689 C   0  0  0  0  0  0  0  0  0  0  0  0
  -15.6032   -2.6054   21.3873 C   0  0  0  0  0  0  0  0  0  0  0  0
  -15.4224   -2.7239   19.8405 C   0  0  0  0  0  0  0  0  0  0  0  0
  -13.2881   -0.3172   18.1446 H   0  0  0  0  0  0  0  0  0  0  0  0
  -12.0170    0.5130   16.3943 H   0  0  0  0  0  0  0  0  0  0  0  0
  -12.0375   -1.1227   15.7085 H   0  0  0  0  0  0  0  0  0  0  0  0
  -14.3611   -0.5119   14.7021 H   0  0  0  0  0  0  0  0  0  0  0  0
  -14.0322    1.1363   15.1555 H   0  0  0  0  0  0  0  0  0  0  0  0
  -12.8213   -1.6693   13.0271 H   0  0  0  0  0  0  0  0  0  0  0  0
  -11.7376   -1.3731   10.7627 H   0  0  0  0  0  0  0  0  0  0  0  0
  -10.1405    2.6756    8.7944 H   0  0  0  0  0  0  0  0  0  0  0  0
  -12.7289    2.5956   13.5723 H   0  0  0  0  0  0  0  0  0  0  0  0
  -13.3483   -3.7324   19.4331 H   0  0  0  0  0  0  0  0  0  0  0  0
  -12.4571   -2.2699   19.4228 H   0  0  0  0  0  0  0  0  0  0  0  0
  -13.1509   -1.5582   21.6833 H   0  0  0  0  0  0  0  0  0  0  0  0
  -12.3333   -3.1277   21.6623 H   0  0  0  0  0  0  0  0  0  0  0  0
  -16.6268   -4.2855   23.3239 H   0  0  0  0  0  0  0  0  0  0  0  0
  -16.6101   -5.5194   25.4301 H   0  0  0  0  0  0  0  0  0  0  0  0
  -12.6233   -4.7525   26.0240 H   0  0  0  0  0  0  0  0  0  0  0  0
  -12.4396   -3.4997   23.9248 H   0  0  0  0  0  0  0  0  0  0  0  0
  -15.7083   -1.5529   21.6769 H   0  0  0  0  0  0  0  0  0  0  0  0
  -16.5346   -3.1186   21.6389 H   0  0  0  0  0  0  0  0  0  0  0  0
  -16.3875   -2.3664   19.4471 H   0  0  0  0  0  0  0  0  0  0  0  0
  -15.4407   -3.7726   19.5042 H   0  0  0  0  0  0  0  0  0  0  0  0
  1  2  2  0
  2  3  1  0
  3  4  1  0
  4  5  1  0
  5  6  1  0
  6  7  2  0
  7  8  1  0
  8  9  2  0
  9 10  1  0
 10 11  2  0
 11 12  1  0
 12 13  1  0
 13 14  2  0
  2 15  1  0
 15 16  1  0
 16 17  1  0
 17 18  1  0
 18 19  1  0
 19 20  2  0
 20 21  1  0
 21 22  2  0
 22 23  1  0
 23 24  2  0
 18 25  1  0
 25 26  1  0
 14  6  1  0
 26 15  1  0
 13  9  1  0
 24 19  1  0
  3 27  1  0
  4 28  1  0
  4 29  1  0
  5 30  1  0
  5 31  1  0
  7 32  1  0
  8 33  1  0
 11 34  1  0
 14 35  1  0
 16 36  1  0
 16 37  1  0
 17 38  1  0
 17 39  1  0
 20 40  1  0
 21 41  1  0
 23 42  1  0
 24 43  1  0
 25 44  1  0
 25 45  1  0
 26 46  1  0
 26 47  1  0
M  END
>  <Energy>  (1162) 
115.74742317984381

>  <compound_id>  (1162) 
6748

>  <target_id>  (1162) 
1

>  <reference_id>  (1162) 
69

>  <inspiration_ids>  (1162) 
[69, 82]

>  <energy_score>  (1162) 
18.996434819445312

>  <distance_score>  (1162) 
14.848643974056047

>  <path>  (1162) 
/opt/xchem-fragalysis-2/maxwin/BulkDock/SCRATCH/511020/C6748-P69/C6748-P69.minimised.mol

>  <scratch_subdir>  (1162) 
/opt/xchem-fragalysis-2/maxwin/BulkDock/SCRATCH/511020/C6748-P69

>  <fragmenstein_runtime>  (1162) 
59.13666272163391

>  <fragmenstein_outcome>  (1162) 
too moved

>  <fragmenstein_mode>  (1162) 
expansion

>  <fragmenstein_error>  (1162) 


$$$$
C6748-P82
     RDKit          3D

 47 50  0  0  0  0  0  0  0  0999 V2000
  -13.3859   -9.4926   21.7743 O   0  0  0  0  0  0  0  0  0  0  0  0
  -12.1531   -9.5440   22.0665 C   0  0  0  0  0  0  0  0  0  0  0  0
  -10.8682   -8.7972   21.3712 N   0  0  0  0  0  0  0  0  0  0  0  0
  -10.7006   -7.7450   19.7862 C   0  0  0  0  0  0  0  0  0  0  0  0
   -9.9582   -6.7352   18.4062 C   0  0  0  0  0  0  0  0  0  0  0  0
  -10.6228   -5.6833   16.8510 C   0  0  0  0  0  0  0  0  0  0  0  0
   -9.7647   -5.3817   15.6702 C   0  0  0  0  0  0  0  0  0  0  0  0
  -10.1337   -4.6372   14.5363 C   0  0  0  0  0  0  0  0  0  0  0  0
  -11.3260   -3.9192   14.5699 C   0  0  0  0  0  0  0  0  0  0  0  0
  -11.7500   -2.9925   13.6446 N   0  0  0  0  0  0  0  0  0  0  0  0
  -12.8510   -2.4048   14.0451 C   0  0  0  0  0  0  0  0  0  0  0  0
  -13.4987   -2.9858   15.5013 S   0  0  0  0  0  0  0  0  0  0  0  0
  -12.1423   -4.0375   15.6743 C   0  0  0  0  0  0  0  0  0  0  0  0
  -11.8450   -4.8904   16.7635 C   0  0  0  0  0  0  0  0  0  0  0  0
  -11.6589  -10.8435   23.5185 N   0  0  0  0  0  0  0  0  0  0  0  0
  -11.2429  -12.4854   23.3568 C   0  0  0  0  0  0  0  0  0  0  0  0
  -11.9622  -14.5781   23.3410 C   0  0  0  0  0  0  0  0  0  0  0  0
  -12.4109  -14.9747   25.1720 N   0  0  0  0  0  0  0  0  0  0  0  0
  -12.2067  -16.2412   25.5852 C   0  0  0  0  0  0  0  0  0  0  0  0
  -12.4054  -17.0883   24.6479 C   0  0  0  0  0  0  0  0  0  0  0  0
  -11.1335  -17.5942   24.3892 C   0  0  0  0  0  0  0  0  0  0  0  0
  -10.8947  -18.7831   24.6656 N   0  0  0  0  0  0  0  0  0  0  0  0
  -11.2504  -18.5951   25.8583 C   0  0  0  0  0  0  0  0  0  0  0  0
  -11.8014  -17.1456   26.5158 C   0  0  0  0  0  0  0  0  0  0  0  0
  -12.3476  -13.4724   25.8220 C   0  0  0  0  0  0  0  0  0  0  0  0
  -12.7092  -11.9812   24.7031 C   0  0  0  0  0  0  0  0  0  0  0  0
  -10.0100   -8.9801   21.9318 H   0  0  0  0  0  0  0  0  0  0  0  0
  -10.6273   -6.6944   20.0657 H   0  0  0  0  0  0  0  0  0  0  0  0
   -9.6518   -8.1473   19.7531 H   0  0  0  0  0  0  0  0  0  0  0  0
   -8.8928   -7.0555   18.5146 H   0  0  0  0  0  0  0  0  0  0  0  0
   -9.5033   -6.0702   19.1289 H   0  0  0  0  0  0  0  0  0  0  0  0
   -8.7225   -5.7145   15.6371 H   0  0  0  0  0  0  0  0  0  0  0  0
   -9.4472   -4.5161   13.7059 H   0  0  0  0  0  0  0  0  0  0  0  0
  -13.3230   -1.6135   13.4777 H   0  0  0  0  0  0  0  0  0  0  0  0
  -12.6250   -4.8647   17.5142 H   0  0  0  0  0  0  0  0  0  0  0  0
  -10.6469  -12.2660   24.2781 H   0  0  0  0  0  0  0  0  0  0  0  0
  -10.9324  -12.2648   22.3188 H   0  0  0  0  0  0  0  0  0  0  0  0
  -11.2988  -15.2775   22.9002 H   0  0  0  0  0  0  0  0  0  0  0  0
  -12.8625  -15.2790   23.2969 H   0  0  0  0  0  0  0  0  0  0  0  0
  -13.2669  -17.7619   24.6595 H   0  0  0  0  0  0  0  0  0  0  0  0
  -10.2624  -17.0004   24.5032 H   0  0  0  0  0  0  0  0  0  0  0  0
  -11.3814  -19.6342   26.1798 H   0  0  0  0  0  0  0  0  0  0  0  0
  -11.8676  -16.9763   27.5837 H   0  0  0  0  0  0  0  0  0  0  0  0
  -13.3742  -13.6839   26.0020 H   0  0  0  0  0  0  0  0  0  0  0  0
  -11.6799  -13.2999   26.6706 H   0  0  0  0  0  0  0  0  0  0  0  0
  -13.8143  -11.7931   24.7958 H   0  0  0  0  0  0  0  0  0  0  0  0
  -12.3272  -11.4054   25.6004 H   0  0  0  0  0  0  0  0  0  0  0  0
  1  2  2  0
  2  3  1  0
  3  4  1  0
  4  5  1  0
  5  6  1  0
  6  7  2  0
  7  8  1  0
  8  9  2  0
  9 10  1  0
 10 11  2  0
 11 12  1  0
 12 13  1  0
 13 14  2  0
  2 15  1  0
 15 16  1  0
 16 17  1  0
 17 18  1  0
 18 19  1  0
 19 20  2  0
 20 21  1  0
 21 22  2  0
 22 23  1  0
 23 24  2  0
 18 25  1  0
 25 26  1  0
 14  6  1  0
 26 15  1  0
 13  9  1  0
 24 19  1  0
  3 27  1  0
  4 28  1  0
  4 29  1  0
  5 30  1  0
  5 31  1  0
  7 32  1  0
  8 33  1  0
 11 34  1  0
 14 35  1  0
 16 36  1  0
 16 37  1  0
 17 38  1  0
 17 39  1  0
 20 40  1  0
 21 41  1  0
 23 42  1  0
 24 43  1  0
 25 44  1  0
 25 45  1  0
 26 46  1  0
 26 47  1  0
M  END
>  <Energy>  (1163) 
1187.04984467694

>  <compound_id>  (1163) 
6748

>  <target_id>  (1163) 
1

>  <reference_id>  (1163) 
82

>  <inspiration_ids>  (1163) 
[69, 82]

>  <energy_score>  (1163) 
1090.29885631653

>  <distance_score>  (1163) 
10.752532773634556

>  <path>  (1163) 
/opt/xchem-fragalysis-2/maxwin/BulkDock/SCRATCH/511020/C6748-P82/C6748-P82.minimised.mol

>  <scratch_subdir>  (1163) 
/opt/xchem-fragalysis-2/maxwin/BulkDock/SCRATCH/511020/C6748-P82

>  <fragmenstein_runtime>  (1163) 
30.494832515716553

>  <fragmenstein_outcome>  (1163) 
too moved

>  <fragmenstein_mode>  (1163) 
expansion

>  <fragmenstein_error>  (1163) 


$$$$
C11055-P69
     RDKit          3D

 48 51  0  0  0  0  0  0  0  0999 V2000
   -6.9079  -13.9600   20.5026 O   0  0  0  0  0  0  0  0  0  0  0  0
   -8.1071  -14.4046   20.6380 C   0  0  0  0  0  0  0  0  0  0  0  0
   -9.2222  -13.3057   19.3753 C   0  0  0  0  0  0  0  0  0  0  0  0
   -8.3728  -12.3982   17.6102 C   0  0  0  0  0  0  0  0  0  0  0  0
   -8.5408  -11.6423   15.5819 C   0  0  0  0  0  0  0  0  0  0  0  0
   -7.6466  -10.2322   14.3636 C   0  0  0  0  0  0  0  0  0  0  0  0
   -7.7798   -9.0086   13.6561 N   0  0  0  0  0  0  0  0  0  0  0  0
   -6.3798   -8.2664   12.8084 C   0  0  0  0  0  0  0  0  0  0  0  0
   -5.9975   -6.9443   12.3719 C   0  0  0  0  0  0  0  0  0  0  0  0
   -4.8019   -6.5980   11.7077 C   0  0  0  0  0  0  0  0  0  0  0  0
   -3.9342   -7.5260   11.2613 C   0  0  0  0  0  0  0  0  0  0  0  0
   -4.1655   -8.7819   11.7230 C   0  0  0  0  0  0  0  0  0  0  0  0
   -5.2329   -9.0629   12.6467 C   0  0  0  0  0  0  0  0  0  0  0  0
   -5.4480  -10.5480   13.7763 S   0  0  0  0  0  0  0  0  0  0  0  0
   -8.3630  -16.1348   21.8316 N   0  0  0  0  0  0  0  0  0  0  0  0
   -7.1947  -17.2087   22.6252 C   0  0  0  0  0  0  0  0  0  0  0  0
   -7.8929  -19.0316   23.0930 C   0  0  0  0  0  0  0  0  0  0  0  0
   -9.7915  -19.4911   23.3977 N   0  0  0  0  0  0  0  0  0  0  0  0
  -10.4933  -20.9185   23.4362 C   0  0  0  0  0  0  0  0  0  0  0  0
  -11.8251  -20.9921   23.9196 C   0  0  0  0  0  0  0  0  0  0  0  0
  -12.5060  -22.2179   23.9538 C   0  0  0  0  0  0  0  0  0  0  0  0
  -11.8661  -23.3727   23.5540 C   0  0  0  0  0  0  0  0  0  0  0  0
  -10.5806  -23.2410   23.0797 C   0  0  0  0  0  0  0  0  0  0  0  0
   -9.9071  -22.0613   22.9816 N   0  0  0  0  0  0  0  0  0  0  0  0
  -10.5660  -19.2695   22.0287 C   0  0  0  0  0  0  0  0  0  0  0  0
   -8.4458  -18.0271   21.5228 C   0  0  0  0  0  0  0  0  0  0  0  0
  -10.2038  -13.6222   19.1975 H   0  0  0  0  0  0  0  0  0  0  0  0
   -9.0760  -12.3249   19.6609 H   0  0  0  0  0  0  0  0  0  0  0  0
   -7.6997  -13.2252   17.3838 H   0  0  0  0  0  0  0  0  0  0  0  0
   -7.5823  -11.8035   18.0979 H   0  0  0  0  0  0  0  0  0  0  0  0
   -8.8043  -12.4994   14.9027 H   0  0  0  0  0  0  0  0  0  0  0  0
   -9.5506  -11.3371   15.1772 H   0  0  0  0  0  0  0  0  0  0  0  0
   -6.6098   -6.0927   12.6670 H   0  0  0  0  0  0  0  0  0  0  0  0
   -4.5227   -5.5842   11.5834 H   0  0  0  0  0  0  0  0  0  0  0  0
   -3.0565   -7.2844   10.6743 H   0  0  0  0  0  0  0  0  0  0  0  0
   -3.4663   -9.5427   11.4157 H   0  0  0  0  0  0  0  0  0  0  0  0
   -6.3617  -17.4316   21.9241 H   0  0  0  0  0  0  0  0  0  0  0  0
   -6.8039  -16.8484   23.5531 H   0  0  0  0  0  0  0  0  0  0  0  0
   -7.5097  -19.7676   22.3988 H   0  0  0  0  0  0  0  0  0  0  0  0
   -7.2330  -19.1434   23.8766 H   0  0  0  0  0  0  0  0  0  0  0  0
  -12.3121  -20.1243   24.3442 H   0  0  0  0  0  0  0  0  0  0  0  0
  -13.5231  -22.2662   24.3286 H   0  0  0  0  0  0  0  0  0  0  0  0
  -12.3592  -24.3346   23.6039 H   0  0  0  0  0  0  0  0  0  0  0  0
  -10.0224  -24.1106   22.7491 H   0  0  0  0  0  0  0  0  0  0  0  0
  -10.3524  -20.4642   21.5275 H   0  0  0  0  0  0  0  0  0  0  0  0
  -11.3698  -19.8426   21.3846 H   0  0  0  0  0  0  0  0  0  0  0  0
   -7.5870  -18.5237   20.8937 H   0  0  0  0  0  0  0  0  0  0  0  0
   -9.0048  -17.2606   21.2035 H   0  0  0  0  0  0  0  0  0  0  0  0
  1  2  2  0
  2  3  1  0
  3  4  1  0
  4  5  1  0
  5  6  1  0
  6  7  2  0
  7  8  1  0
  8  9  2  0
  9 10  1  0
 10 11  2  0
 11 12  1  0
 12 13  2  0
 13 14  1  0
  2 15  1  0
 15 16  1  0
 16 17  1  0
 17 18  1  0
 18 19  1  0
 19 20  2  0
 20 21  1  0
 21 22  2  0
 22 23  1  0
 23 24  2  0
 18 25  1  0
 25 26  1  0
 14  6  1  0
 26 15  1  0
 13  8  1  0
 24 19  1  0
  3 27  1  0
  3 28  1  0
  4 29  1  0
  4 30  1  0
  5 31  1  0
  5 32  1  0
  9 33  1  0
 10 34  1  0
 11 35  1  0
 12 36  1  0
 16 37  1  0
 16 38  1  0
 17 39  1  0
 17 40  1  0
 20 41  1  0
 21 42  1  0
 22 43  1  0
 23 44  1  0
 25 45  1  0
 25 46  1  0
 26 47  1  0
 26 48  1  0
M  END
>  <Energy>  (1164) 
1875.7093056786434

>  <compound_id>  (1164) 
11055

>  <target_id>  (1164) 
1

>  <reference_id>  (1164) 
69

>  <inspiration_ids>  (1164) 
[69, 82]

>  <energy_score>  (1164) 
1750.582460943789

>  <distance_score>  (1164) 
9.161068768648304

>  <path>  (1164) 
/opt/xchem-fragalysis-2/maxwin/BulkDock/SCRATCH/511020/C11055-P69/C11055-P69.minimised.mol

>  <scratch_subdir>  (1164) 
/opt/xchem-fragalysis-2/maxwin/BulkDock/SCRATCH/511020/C11055-P69

>  <fragmenstein_runtime>  (1164) 
27.471883535385132

>  <fragmenstein_outcome>  (1164) 
too moved

>  <fragmenstein_mode>  (1164) 
expansion

>  <fragmenstein_error>  (1164) 


$$$$
C11055-P82
     RDKit          3D

 48 51  0  0  0  0  0  0  0  0999 V2000
   -6.8191  -12.7158   19.3965 O   0  0  0  0  0  0  0  0  0  0  0  0
   -7.6476  -12.9768   18.5756 C   0  0  0  0  0  0  0  0  0  0  0  0
   -7.6102  -11.5260   17.0979 C   0  0  0  0  0  0  0  0  0  0  0  0
   -6.9315   -9.9693   15.7377 C   0  0  0  0  0  0  0  0  0  0  0  0
   -7.3721   -8.8505   13.9269 C   0  0  0  0  0  0  0  0  0  0  0  0
   -6.6067   -7.3559   12.6862 C   0  0  0  0  0  0  0  0  0  0  0  0
   -6.9088   -5.7450   12.3448 N   0  0  0  0  0  0  0  0  0  0  0  0
   -7.2161   -5.0675   10.5523 C   0  0  0  0  0  0  0  0  0  0  0  0
   -8.6557   -4.5677    9.4940 C   0  0  0  0  0  0  0  0  0  0  0  0
   -8.8480   -4.0334    8.2150 C   0  0  0  0  0  0  0  0  0  0  0  0
   -7.7861   -4.1619    7.4661 C   0  0  0  0  0  0  0  0  0  0  0  0
   -6.7995   -4.8606    8.1445 C   0  0  0  0  0  0  0  0  0  0  0  0
   -6.5459   -5.7820    9.6133 C   0  0  0  0  0  0  0  0  0  0  0  0
   -5.3719   -7.1761   10.9307 S   0  0  0  0  0  0  0  0  0  0  0  0
   -8.5029  -14.6837   18.9247 N   0  0  0  0  0  0  0  0  0  0  0  0
   -8.3529  -15.9073   20.3811 C   0  0  0  0  0  0  0  0  0  0  0  0
   -7.4850  -17.2940   21.4430 C   0  0  0  0  0  0  0  0  0  0  0  0
   -7.3763  -18.6902   20.9318 N   0  0  0  0  0  0  0  0  0  0  0  0
   -8.0341  -19.7669   22.2724 C   0  0  0  0  0  0  0  0  0  0  0  0
   -9.1335  -21.2141   21.8112 C   0  0  0  0  0  0  0  0  0  0  0  0
  -10.2553  -22.0652   22.1275 C   0  0  0  0  0  0  0  0  0  0  0  0
  -11.0438  -21.5227   23.0374 C   0  0  0  0  0  0  0  0  0  0  0  0
  -10.5047  -20.3141   23.4658 C   0  0  0  0  0  0  0  0  0  0  0  0
   -9.1028  -19.3030   23.2033 N   0  0  0  0  0  0  0  0  0  0  0  0
   -6.9573  -18.0331   19.1565 C   0  0  0  0  0  0  0  0  0  0  0  0
   -7.9227  -16.4363   18.2369 C   0  0  0  0  0  0  0  0  0  0  0  0
   -8.1848  -12.1632   16.4197 H   0  0  0  0  0  0  0  0  0  0  0  0
   -6.6167  -11.3294   17.5441 H   0  0  0  0  0  0  0  0  0  0  0  0
   -6.9425   -9.1639   16.5187 H   0  0  0  0  0  0  0  0  0  0  0  0
   -5.8985  -10.2867   15.7378 H   0  0  0  0  0  0  0  0  0  0  0  0
   -8.2296   -9.3235   13.4293 H   0  0  0  0  0  0  0  0  0  0  0  0
   -7.7821   -7.9663   14.4017 H   0  0  0  0  0  0  0  0  0  0  0  0
   -9.5380   -4.5177   10.1669 H   0  0  0  0  0  0  0  0  0  0  0  0
   -9.7126   -3.4812    7.8868 H   0  0  0  0  0  0  0  0  0  0  0  0
   -7.6447   -3.6664    6.5167 H   0  0  0  0  0  0  0  0  0  0  0  0
   -5.9325   -4.2544    7.7617 H   0  0  0  0  0  0  0  0  0  0  0  0
   -9.3106  -16.2398   20.0382 H   0  0  0  0  0  0  0  0  0  0  0  0
   -7.4096  -16.3639   20.0934 H   0  0  0  0  0  0  0  0  0  0  0  0
   -6.4102  -17.1873   21.2658 H   0  0  0  0  0  0  0  0  0  0  0  0
   -7.6934  -17.2397   22.4789 H   0  0  0  0  0  0  0  0  0  0  0  0
   -9.1109  -21.2921   20.6850 H   0  0  0  0  0  0  0  0  0  0  0  0
  -10.5546  -22.8991   21.5104 H   0  0  0  0  0  0  0  0  0  0  0  0
  -11.9840  -21.9136   23.3920 H   0  0  0  0  0  0  0  0  0  0  0  0
  -11.1809  -19.9808   24.2413 H   0  0  0  0  0  0  0  0  0  0  0  0
   -5.9067  -17.7425   19.2713 H   0  0  0  0  0  0  0  0  0  0  0  0
   -6.9902  -18.9248   18.5385 H   0  0  0  0  0  0  0  0  0  0  0  0
   -7.4489  -16.2055   17.2495 H   0  0  0  0  0  0  0  0  0  0  0  0
   -8.7504  -16.7885   17.6425 H   0  0  0  0  0  0  0  0  0  0  0  0
  1  2  2  0
  2  3  1  0
  3  4  1  0
  4  5  1  0
  5  6  1  0
  6  7  2  0
  7  8  1  0
  8  9  2  0
  9 10  1  0
 10 11  2  0
 11 12  1  0
 12 13  2  0
 13 14  1  0
  2 15  1  0
 15 16  1  0
 16 17  1  0
 17 18  1  0
 18 19  1  0
 19 20  2  0
 20 21  1  0
 21 22  2  0
 22 23  1  0
 23 24  2  0
 18 25  1  0
 25 26  1  0
 14  6  1  0
 26 15  1  0
 13  8  1  0
 24 19  1  0
  3 27  1  0
  3 28  1  0
  4 29  1  0
  4 30  1  0
  5 31  1  0
  5 32  1  0
  9 33  1  0
 10 34  1  0
 11 35  1  0
 12 36  1  0
 16 37  1  0
 16 38  1  0
 17 39  1  0
 17 40  1  0
 20 41  1  0
 21 42  1  0
 22 43  1  0
 23 44  1  0
 25 45  1  0
 25 46  1  0
 26 47  1  0
 26 48  1  0
M  END
>  <Energy>  (1165) 
1946.4217116177242

>  <compound_id>  (1165) 
11055

>  <target_id>  (1165) 
1

>  <reference_id>  (1165) 
82

>  <inspiration_ids>  (1165) 
[69, 82]

>  <energy_score>  (1165) 
1821.2948668828526

>  <distance_score>  (1165) 
8.060564498389885

>  <path>  (1165) 
/opt/xchem-fragalysis-2/maxwin/BulkDock/SCRATCH/511020/C11055-P82/C11055-P82.minimised.mol

>  <scratch_subdir>  (1165) 
/opt/xchem-fragalysis-2/maxwin/BulkDock/SCRATCH/511020/C11055-P82

>  <fragmenstein_runtime>  (1165) 
29.412009477615356

>  <fragmenstein_outcome>  (1165) 
too moved

>  <fragmenstein_mode>  (1165) 
expansion

>  <fragmenstein_error>  (1165) 


$$$$
C11056-P69
     RDKit          3D

 47 50  0  0  0  0  0  0  0  0999 V2000
  -10.1265  -12.4000   18.6687 O   0  0  0  0  0  0  0  0  0  0  0  0
   -9.0477  -12.7970   18.3546 C   0  0  0  0  0  0  0  0  0  0  0  0
   -8.1453  -12.2140   17.2370 C   0  0  0  0  0  0  0  0  0  0  0  0
   -8.9149  -11.8967   15.3867 C   0  0  0  0  0  0  0  0  0  0  0  0
   -8.8863  -12.7135   14.0961 N   0  0  0  0  0  0  0  0  0  0  0  0
   -9.1778  -12.1713   12.8486 C   0  0  0  0  0  0  0  0  0  0  0  0
   -9.6588  -12.9396   11.8954 N   0  0  0  0  0  0  0  0  0  0  0  0
   -9.8482  -12.3018   10.6796 C   0  0  0  0  0  0  0  0  0  0  0  0
  -10.3916  -12.8445    9.4948 C   0  0  0  0  0  0  0  0  0  0  0  0
  -10.5572  -12.0443    8.3622 C   0  0  0  0  0  0  0  0  0  0  0  0
  -10.0933  -10.7438    8.3670 C   0  0  0  0  0  0  0  0  0  0  0  0
   -9.4524  -10.2258    9.4919 C   0  0  0  0  0  0  0  0  0  0  0  0
   -9.4878  -10.9675   10.6772 C   0  0  0  0  0  0  0  0  0  0  0  0
   -9.2967  -10.4850   12.4203 S   0  0  0  0  0  0  0  0  0  0  0  0
   -8.1745  -14.1869   18.8754 N   0  0  0  0  0  0  0  0  0  0  0  0
   -8.5774  -15.3101   20.0708 C   0  0  0  0  0  0  0  0  0  0  0  0
   -7.3259  -16.4051   21.1468 C   0  0  0  0  0  0  0  0  0  0  0  0
   -6.6548  -17.6620   20.6184 N   0  0  0  0  0  0  0  0  0  0  0  0
   -7.1472  -19.0339   21.3042 C   0  0  0  0  0  0  0  0  0  0  0  0
   -7.6914  -19.6136   20.2354 C   0  0  0  0  0  0  0  0  0  0  0  0
   -9.0516  -20.6697   20.0940 C   0  0  0  0  0  0  0  0  0  0  0  0
   -9.7497  -21.3010   21.1727 C   0  0  0  0  0  0  0  0  0  0  0  0
   -9.0941  -20.8831   22.3721 C   0  0  0  0  0  0  0  0  0  0  0  0
   -7.7586  -19.7240   22.5174 N   0  0  0  0  0  0  0  0  0  0  0  0
   -6.8469  -17.3129   18.9245 C   0  0  0  0  0  0  0  0  0  0  0  0
   -8.1167  -15.9445   18.1823 C   0  0  0  0  0  0  0  0  0  0  0  0
   -7.6162  -13.1618   17.0888 H   0  0  0  0  0  0  0  0  0  0  0  0
   -7.4337  -11.5193   17.6711 H   0  0  0  0  0  0  0  0  0  0  0  0
  -10.0185  -11.9282   15.4735 H   0  0  0  0  0  0  0  0  0  0  0  0
   -8.5849  -10.9076   15.0462 H   0  0  0  0  0  0  0  0  0  0  0  0
   -9.2926  -13.6358   14.2060 H   0  0  0  0  0  0  0  0  0  0  0  0
  -10.7247  -13.8775    9.4876 H   0  0  0  0  0  0  0  0  0  0  0  0
  -11.0279  -12.4548    7.4726 H   0  0  0  0  0  0  0  0  0  0  0  0
  -10.2278  -10.1359    7.4769 H   0  0  0  0  0  0  0  0  0  0  0  0
   -8.9862   -9.2646    9.4672 H   0  0  0  0  0  0  0  0  0  0  0  0
   -9.5221  -15.6593   19.6856 H   0  0  0  0  0  0  0  0  0  0  0  0
   -8.4872  -14.3231   20.5481 H   0  0  0  0  0  0  0  0  0  0  0  0
   -7.6453  -16.6538   22.1485 H   0  0  0  0  0  0  0  0  0  0  0  0
   -6.4070  -16.0085   20.8972 H   0  0  0  0  0  0  0  0  0  0  0  0
   -7.1313  -19.5318   19.3022 H   0  0  0  0  0  0  0  0  0  0  0  0
   -9.1098  -20.8612   19.0303 H   0  0  0  0  0  0  0  0  0  0  0  0
  -10.5780  -21.9785   21.0996 H   0  0  0  0  0  0  0  0  0  0  0  0
   -9.5535  -21.3234   23.2480 H   0  0  0  0  0  0  0  0  0  0  0  0
   -7.0231  -18.1782   18.3113 H   0  0  0  0  0  0  0  0  0  0  0  0
   -5.7668  -17.1581   18.7398 H   0  0  0  0  0  0  0  0  0  0  0  0
   -9.0142  -16.2780   17.7506 H   0  0  0  0  0  0  0  0  0  0  0  0
   -7.5402  -15.8360   17.2432 H   0  0  0  0  0  0  0  0  0  0  0  0
  1  2  2  0
  2  3  1  0
  3  4  1  0
  4  5  1  0
  5  6  1  0
  6  7  2  0
  7  8  1  0
  8  9  2  0
  9 10  1  0
 10 11  2  0
 11 12  1  0
 12 13  2  0
 13 14  1  0
  2 15  1  0
 15 16  1  0
 16 17  1  0
 17 18  1  0
 18 19  1  0
 19 20  2  0
 20 21  1  0
 21 22  2  0
 22 23  1  0
 23 24  2  0
 18 25  1  0
 25 26  1  0
 14  6  1  0
 26 15  1  0
 13  8  1  0
 24 19  1  0
  3 27  1  0
  3 28  1  0
  4 29  1  0
  4 30  1  0
  5 31  1  0
  9 32  1  0
 10 33  1  0
 11 34  1  0
 12 35  1  0
 16 36  1  0
 16 37  1  0
 17 38  1  0
 17 39  1  0
 20 40  1  0
 21 41  1  0
 22 42  1  0
 23 43  1  0
 25 44  1  0
 25 45  1  0
 26 46  1  0
 26 47  1  0
M  END
>  <Energy>  (1166) 
659.02401655499068

>  <compound_id>  (1166) 
11056

>  <target_id>  (1166) 
1

>  <reference_id>  (1166) 
69

>  <inspiration_ids>  (1166) 
[69, 82]

>  <energy_score>  (1166) 
576.3263743062906

>  <distance_score>  (1166) 
11.74510932841069

>  <path>  (1166) 
/opt/xchem-fragalysis-2/maxwin/BulkDock/SCRATCH/511020/C11056-P69/C11056-P69.minimised.mol

>  <scratch_subdir>  (1166) 
/opt/xchem-fragalysis-2/maxwin/BulkDock/SCRATCH/511020/C11056-P69

>  <fragmenstein_runtime>  (1166) 
39.78406381607056

>  <fragmenstein_outcome>  (1166) 
too moved

>  <fragmenstein_mode>  (1166) 
expansion

>  <fragmenstein_error>  (1166) 


$$$$
C11056-P82
     RDKit          3D

 47 50  0  0  0  0  0  0  0  0999 V2000
   -8.4303  -13.5252   20.5124 O   0  0  0  0  0  0  0  0  0  0  0  0
   -8.3376  -14.1660   19.5679 C   0  0  0  0  0  0  0  0  0  0  0  0
   -8.1073  -12.9826   18.0023 C   0  0  0  0  0  0  0  0  0  0  0  0
   -6.9711  -11.3927   17.4648 C   0  0  0  0  0  0  0  0  0  0  0  0
   -6.1231  -10.3860   15.9432 N   0  0  0  0  0  0  0  0  0  0  0  0
   -5.5587  -10.3827   14.1224 C   0  0  0  0  0  0  0  0  0  0  0  0
   -5.2280  -11.2126   12.9964 N   0  0  0  0  0  0  0  0  0  0  0  0
   -4.2838  -10.9929   11.5356 C   0  0  0  0  0  0  0  0  0  0  0  0
   -3.9186  -11.9151   10.5282 C   0  0  0  0  0  0  0  0  0  0  0  0
   -3.0758  -11.4401    9.5257 C   0  0  0  0  0  0  0  0  0  0  0  0
   -2.6554  -10.1104    9.5246 C   0  0  0  0  0  0  0  0  0  0  0  0
   -3.1831   -9.1549   10.4071 C   0  0  0  0  0  0  0  0  0  0  0  0
   -4.0327   -9.6323   11.3988 C   0  0  0  0  0  0  0  0  0  0  0  0
   -4.7160   -8.8348   12.7613 S   0  0  0  0  0  0  0  0  0  0  0  0
   -8.2156  -16.0686   19.8918 N   0  0  0  0  0  0  0  0  0  0  0  0
   -8.0855  -17.0440   21.4861 C   0  0  0  0  0  0  0  0  0  0  0  0
   -7.4808  -18.3948   22.4200 C   0  0  0  0  0  0  0  0  0  0  0  0
   -7.5571  -19.7607   22.0482 N   0  0  0  0  0  0  0  0  0  0  0  0
   -9.0300  -20.9271   22.3530 C   0  0  0  0  0  0  0  0  0  0  0  0
   -8.9140  -22.2974   22.8322 C   0  0  0  0  0  0  0  0  0  0  0  0
   -9.9512  -23.2650   22.9742 C   0  0  0  0  0  0  0  0  0  0  0  0
  -11.2352  -22.8247   23.0325 C   0  0  0  0  0  0  0  0  0  0  0  0
  -11.3359  -21.4633   23.0206 C   0  0  0  0  0  0  0  0  0  0  0  0
  -10.3271  -20.5738   22.7168 N   0  0  0  0  0  0  0  0  0  0  0  0
   -6.9794  -19.1256   20.4908 C   0  0  0  0  0  0  0  0  0  0  0  0
   -6.6925  -17.2070   20.1553 C   0  0  0  0  0  0  0  0  0  0  0  0
   -9.1039  -12.5454   18.0158 H   0  0  0  0  0  0  0  0  0  0  0  0
   -7.7135  -13.6237   17.2337 H   0  0  0  0  0  0  0  0  0  0  0  0
   -7.4101  -10.6861   18.1011 H   0  0  0  0  0  0  0  0  0  0  0  0
   -7.7401  -11.5564   16.7273 H   0  0  0  0  0  0  0  0  0  0  0  0
   -6.7082   -9.5666   16.0824 H   0  0  0  0  0  0  0  0  0  0  0  0
   -4.2255  -12.9510   10.5873 H   0  0  0  0  0  0  0  0  0  0  0  0
   -2.6940  -12.1276    8.7749 H   0  0  0  0  0  0  0  0  0  0  0  0
   -1.8946   -9.8072    8.8093 H   0  0  0  0  0  0  0  0  0  0  0  0
   -2.8623   -8.1193   10.3916 H   0  0  0  0  0  0  0  0  0  0  0  0
   -7.8672  -16.4483   22.2729 H   0  0  0  0  0  0  0  0  0  0  0  0
   -8.7589  -17.7657   21.3467 H   0  0  0  0  0  0  0  0  0  0  0  0
   -8.2769  -18.7029   23.0095 H   0  0  0  0  0  0  0  0  0  0  0  0
   -6.5404  -18.1771   22.9197 H   0  0  0  0  0  0  0  0  0  0  0  0
   -7.9666  -22.6479   23.2448 H   0  0  0  0  0  0  0  0  0  0  0  0
   -9.7031  -24.2937   23.2120 H   0  0  0  0  0  0  0  0  0  0  0  0
  -12.0694  -23.4643   23.2789 H   0  0  0  0  0  0  0  0  0  0  0  0
  -12.2401  -21.0018   23.3770 H   0  0  0  0  0  0  0  0  0  0  0  0
   -5.9647  -19.5298   20.4135 H   0  0  0  0  0  0  0  0  0  0  0  0
   -7.5583  -19.5495   19.7015 H   0  0  0  0  0  0  0  0  0  0  0  0
   -5.9272  -16.9371   20.8464 H   0  0  0  0  0  0  0  0  0  0  0  0
   -6.2839  -17.3991   19.1615 H   0  0  0  0  0  0  0  0  0  0  0  0
  1  2  2  0
  2  3  1  0
  3  4  1  0
  4  5  1  0
  5  6  1  0
  6  7  2  0
  7  8  1  0
  8  9  2  0
  9 10  1  0
 10 11  2  0
 11 12  1  0
 12 13  2  0
 13 14  1  0
  2 15  1  0
 15 16  1  0
 16 17  1  0
 17 18  1  0
 18 19  1  0
 19 20  2  0
 20 21  1  0
 21 22  2  0
 22 23  1  0
 23 24  2  0
 18 25  1  0
 25 26  1  0
 14  6  1  0
 26 15  1  0
 13  8  1  0
 24 19  1  0
  3 27  1  0
  3 28  1  0
  4 29  1  0
  4 30  1  0
  5 31  1  0
  9 32  1  0
 10 33  1  0
 11 34  1  0
 12 35  1  0
 16 36  1  0
 16 37  1  0
 17 38  1  0
 17 39  1  0
 20 40  1  0
 21 41  1  0
 22 42  1  0
 23 43  1  0
 25 44  1  0
 25 45  1  0
 26 46  1  0
 26 47  1  0
M  END
>  <Energy>  (1167) 
1274.469969573453

>  <compound_id>  (1167) 
11056

>  <target_id>  (1167) 
1

>  <reference_id>  (1167) 
82

>  <inspiration_ids>  (1167) 
[69, 82]

>  <energy_score>  (1167) 
1191.7723273247652

>  <distance_score>  (1167) 
10.258873186153624

>  <path>  (1167) 
/opt/xchem-fragalysis-2/maxwin/BulkDock/SCRATCH/511020/C11056-P82/C11056-P82.minimised.mol

>  <scratch_subdir>  (1167) 
/opt/xchem-fragalysis-2/maxwin/BulkDock/SCRATCH/511020/C11056-P82

>  <fragmenstein_runtime>  (1167) 
26.64210605621338

>  <fragmenstein_outcome>  (1167) 
too moved

>  <fragmenstein_mode>  (1167) 
expansion

>  <fragmenstein_error>  (1167) 


$$$$
C52442-P69
     RDKit          3D

 38 41  0  0  0  0  0  0  0  0999 V2000
   -5.3767  -16.7802   19.1800 O   0  0  0  0  0  0  0  0  0  0  0  0
   -6.3925  -17.1601   19.0895 C   0  0  0  0  0  0  0  0  0  0  0  0
   -7.4400  -16.1841   17.8439 N   0  0  0  0  0  0  0  0  0  0  0  0
   -7.0323  -14.5960   16.9383 C   0  0  0  0  0  0  0  0  0  0  0  0
   -5.8558  -13.5543   17.2337 N   0  0  0  0  0  0  0  0  0  0  0  0
   -5.6386  -12.1689   18.0793 C   0  0  0  0  0  0  0  0  0  0  0  0
   -4.0815  -11.3551   18.1197 C   0  0  0  0  0  0  0  0  0  0  0  0
   -3.6751  -10.2144   17.0481 C   0  0  0  0  0  0  0  0  0  0  0  0
   -4.8440   -9.6167   16.3687 C   0  0  0  0  0  0  0  0  0  0  0  0
   -6.2696  -10.2000   16.5986 C   0  0  0  0  0  0  0  0  0  0  0  0
   -6.9510  -11.5147   17.6863 C   0  0  0  0  0  0  0  0  0  0  0  0
   -7.9914  -12.7866   18.0587 S   0  0  0  0  0  0  0  0  0  0  0  0
   -6.6488  -18.1261   20.1234 N   0  0  0  0  0  0  0  0  0  0  0  0
   -5.9527  -18.5412   21.1853 C   0  0  0  0  0  0  0  0  0  0  0  0
   -6.8695  -18.6588   22.4856 C   0  0  0  0  0  0  0  0  0  0  0  0
   -7.1279  -20.0751   22.6590 N   0  0  0  0  0  0  0  0  0  0  0  0
   -8.7439  -20.7251   22.5482 C   0  0  0  0  0  0  0  0  0  0  0  0
   -9.9227  -19.9472   23.1479 N   0  0  0  0  0  0  0  0  0  0  0  0
  -11.1763  -20.4697   23.0244 C   0  0  0  0  0  0  0  0  0  0  0  0
  -11.0931  -21.7782   22.7729 C   0  0  0  0  0  0  0  0  0  0  0  0
   -9.4562  -22.2435   22.9366 S   0  0  0  0  0  0  0  0  0  0  0  0
   -5.6411  -20.4236   21.6279 C   0  0  0  0  0  0  0  0  0  0  0  0
   -6.3471  -19.6889   19.9057 C   0  0  0  0  0  0  0  0  0  0  0  0
   -8.3254  -16.6356   17.7506 H   0  0  0  0  0  0  0  0  0  0  0  0
   -3.2443  -11.8081   18.6535 H   0  0  0  0  0  0  0  0  0  0  0  0
   -2.6561   -9.8604   16.9625 H   0  0  0  0  0  0  0  0  0  0  0  0
   -4.7122   -8.8102   15.6503 H   0  0  0  0  0  0  0  0  0  0  0  0
   -6.8513   -9.6984   15.8030 H   0  0  0  0  0  0  0  0  0  0  0  0
   -4.8378  -18.6229   21.0323 H   0  0  0  0  0  0  0  0  0  0  0  0
   -5.6615  -17.5207   21.5088 H   0  0  0  0  0  0  0  0  0  0  0  0
   -7.7227  -18.0125   22.3500 H   0  0  0  0  0  0  0  0  0  0  0  0
   -6.2753  -18.2996   23.3344 H   0  0  0  0  0  0  0  0  0  0  0  0
  -12.0693  -19.8863   23.1899 H   0  0  0  0  0  0  0  0  0  0  0  0
  -11.9271  -22.4417   22.7090 H   0  0  0  0  0  0  0  0  0  0  0  0
   -5.1223  -21.3832   21.5648 H   0  0  0  0  0  0  0  0  0  0  0  0
   -4.8359  -19.9113   22.2003 H   0  0  0  0  0  0  0  0  0  0  0  0
   -5.5196  -19.8074   19.1906 H   0  0  0  0  0  0  0  0  0  0  0  0
   -7.2580  -20.1937   19.5648 H   0  0  0  0  0  0  0  0  0  0  0  0
  1  2  2  0
  2  3  1  0
  3  4  1  0
  4  5  2  0
  5  6  1  0
  6  7  2  0
  7  8  1  0
  8  9  2  0
  9 10  1  0
 10 11  2  0
 11 12  1  0
  2 13  1  0
 13 14  1  0
 14 15  1  0
 15 16  1  0
 16 17  1  0
 17 18  2  0
 18 19  1  0
 19 20  2  0
 20 21  1  0
 16 22  1  0
 22 23  1  0
 12  4  1  0
 23 13  1  0
 11  6  1  0
 21 17  1  0
  3 24  1  0
  7 25  1  0
  8 26  1  0
  9 27  1  0
 10 28  1  0
 14 29  1  0
 14 30  1  0
 15 31  1  0
 15 32  1  0
 19 33  1  0
 20 34  1  0
 22 35  1  0
 22 36  1  0
 23 37  1  0
 23 38  1  0
M  END
>  <Energy>  (1168) 
966.49326757814731

>  <compound_id>  (1168) 
52442

>  <target_id>  (1168) 
1

>  <reference_id>  (1168) 
69

>  <inspiration_ids>  (1168) 
[69, 82]

>  <energy_score>  (1168) 
894.6870051604233

>  <distance_score>  (1168) 
13.048424516498986

>  <path>  (1168) 
/opt/xchem-fragalysis-2/maxwin/BulkDock/SCRATCH/511020/C52442-P69/C52442-P69.minimised.mol

>  <scratch_subdir>  (1168) 
/opt/xchem-fragalysis-2/maxwin/BulkDock/SCRATCH/511020/C52442-P69

>  <fragmenstein_runtime>  (1168) 
24.724373817443848

>  <fragmenstein_outcome>  (1168) 
too moved

>  <fragmenstein_mode>  (1168) 
expansion

>  <fragmenstein_error>  (1168) 


$$$$
C52442-P82
     RDKit          3D

 38 41  0  0  0  0  0  0  0  0999 V2000
  -12.7628  -15.5071   20.3729 O   0  0  0  0  0  0  0  0  0  0  0  0
  -12.5451  -14.7244   21.2211 C   0  0  0  0  0  0  0  0  0  0  0  0
  -11.2122  -13.5121   21.1674 N   0  0  0  0  0  0  0  0  0  0  0  0
   -9.9423  -13.0844   19.7503 C   0  0  0  0  0  0  0  0  0  0  0  0
   -9.6606  -11.7972   19.0361 N   0  0  0  0  0  0  0  0  0  0  0  0
   -8.1900  -10.7352   19.0514 C   0  0  0  0  0  0  0  0  0  0  0  0
   -8.1807   -9.0612   18.6937 C   0  0  0  0  0  0  0  0  0  0  0  0
   -7.3714   -8.4321   17.4815 C   0  0  0  0  0  0  0  0  0  0  0  0
   -6.5424   -9.3383   16.7665 C   0  0  0  0  0  0  0  0  0  0  0  0
   -6.5312  -10.8272   17.2627 C   0  0  0  0  0  0  0  0  0  0  0  0
   -7.4519  -11.6250   18.2907 C   0  0  0  0  0  0  0  0  0  0  0  0
   -8.1786  -13.2938   19.1159 S   0  0  0  0  0  0  0  0  0  0  0  0
  -13.3467  -14.4568   22.4463 N   0  0  0  0  0  0  0  0  0  0  0  0
  -14.6828  -15.0016   22.8900 C   0  0  0  0  0  0  0  0  0  0  0  0
  -15.0432  -16.4399   22.4061 C   0  0  0  0  0  0  0  0  0  0  0  0
  -14.1653  -17.4267   23.0400 N   0  0  0  0  0  0  0  0  0  0  0  0
  -14.8405  -18.5213   23.5034 C   0  0  0  0  0  0  0  0  0  0  0  0
  -15.5591  -18.5222   24.6062 N   0  0  0  0  0  0  0  0  0  0  0  0
  -16.3181  -19.6747   24.6681 C   0  0  0  0  0  0  0  0  0  0  0  0
  -16.0930  -20.5911   23.6657 C   0  0  0  0  0  0  0  0  0  0  0  0
  -14.8944  -19.9915   22.6011 S   0  0  0  0  0  0  0  0  0  0  0  0
  -13.3040  -16.7631   23.9877 C   0  0  0  0  0  0  0  0  0  0  0  0
  -12.8803  -15.3097   23.5703 C   0  0  0  0  0  0  0  0  0  0  0  0
  -11.1814  -13.0079   22.0598 H   0  0  0  0  0  0  0  0  0  0  0  0
   -8.7169   -8.3837   19.3566 H   0  0  0  0  0  0  0  0  0  0  0  0
   -7.3703   -7.3605   17.3179 H   0  0  0  0  0  0  0  0  0  0  0  0
   -5.7973   -9.0071   16.0513 H   0  0  0  0  0  0  0  0  0  0  0  0
   -5.5568  -11.2590   17.1432 H   0  0  0  0  0  0  0  0  0  0  0  0
  -15.3735  -14.3607   22.3199 H   0  0  0  0  0  0  0  0  0  0  0  0
  -14.9718  -14.7723   23.9319 H   0  0  0  0  0  0  0  0  0  0  0  0
  -16.1029  -16.6147   22.6377 H   0  0  0  0  0  0  0  0  0  0  0  0
  -14.9380  -16.5154   21.3183 H   0  0  0  0  0  0  0  0  0  0  0  0
  -17.0128  -19.8095   25.4882 H   0  0  0  0  0  0  0  0  0  0  0  0
  -16.5476  -21.5597   23.5270 H   0  0  0  0  0  0  0  0  0  0  0  0
  -12.3808  -17.3354   24.1114 H   0  0  0  0  0  0  0  0  0  0  0  0
  -13.7924  -16.6805   24.9674 H   0  0  0  0  0  0  0  0  0  0  0  0
  -12.9667  -14.7247   24.4946 H   0  0  0  0  0  0  0  0  0  0  0  0
  -11.8778  -15.5081   23.2445 H   0  0  0  0  0  0  0  0  0  0  0  0
  1  2  2  0
  2  3  1  0
  3  4  1  0
  4  5  2  0
  5  6  1  0
  6  7  2  0
  7  8  1  0
  8  9  2  0
  9 10  1  0
 10 11  2  0
 11 12  1  0
  2 13  1  0
 13 14  1  0
 14 15  1  0
 15 16  1  0
 16 17  1  0
 17 18  2  0
 18 19  1  0
 19 20  2  0
 20 21  1  0
 16 22  1  0
 22 23  1  0
 12  4  1  0
 23 13  1  0
 11  6  1  0
 21 17  1  0
  3 24  1  0
  7 25  1  0
  8 26  1  0
  9 27  1  0
 10 28  1  0
 14 29  1  0
 14 30  1  0
 15 31  1  0
 15 32  1  0
 19 33  1  0
 20 34  1  0
 22 35  1  0
 22 36  1  0
 23 37  1  0
 23 38  1  0
M  END
>  <Energy>  (1169) 
545.2912750151155

>  <compound_id>  (1169) 
52442

>  <target_id>  (1169) 
1

>  <reference_id>  (1169) 
82

>  <inspiration_ids>  (1169) 
[69, 82]

>  <energy_score>  (1169) 
473.4850125973971

>  <distance_score>  (1169) 
13.19169765529485

>  <path>  (1169) 
/opt/xchem-fragalysis-2/maxwin/BulkDock/SCRATCH/511020/C52442-P82/C52442-P82.minimised.mol

>  <scratch_subdir>  (1169) 
/opt/xchem-fragalysis-2/maxwin/BulkDock/SCRATCH/511020/C52442-P82

>  <fragmenstein_runtime>  (1169) 
20.25162649154663

>  <fragmenstein_outcome>  (1169) 
too moved

>  <fragmenstein_mode>  (1169) 
expansion

>  <fragmenstein_error>  (1169) 


$$$$
C6749-P69
     RDKit          3D

 41 44  0  0  0  0  0  0  0  0999 V2000
  -10.9873  -12.4445   18.2427 O   0  0  0  0  0  0  0  0  0  0  0  0
  -10.2367  -13.2374   18.5557 C   0  0  0  0  0  0  0  0  0  0  0  0
   -8.5606  -12.8654   17.7848 N   0  0  0  0  0  0  0  0  0  0  0  0
   -8.0948  -11.7737   16.6708 C   0  0  0  0  0  0  0  0  0  0  0  0
   -9.0651  -12.1027   15.5215 N   0  0  0  0  0  0  0  0  0  0  0  0
   -9.0392  -12.7365   14.2961 C   0  0  0  0  0  0  0  0  0  0  0  0
   -9.7045  -13.7866   13.6829 C   0  0  0  0  0  0  0  0  0  0  0  0
  -10.1880  -13.6551   12.3691 C   0  0  0  0  0  0  0  0  0  0  0  0
   -9.9429  -12.5082   11.6858 C   0  0  0  0  0  0  0  0  0  0  0  0
   -9.4290  -11.4243   12.4152 C   0  0  0  0  0  0  0  0  0  0  0  0
   -8.9111  -11.6053   13.6454 C   0  0  0  0  0  0  0  0  0  0  0  0
   -8.4828  -10.4836   14.7759 S   0  0  0  0  0  0  0  0  0  0  0  0
  -10.5622  -14.9848   19.5613 N   0  0  0  0  0  0  0  0  0  0  0  0
  -10.9817  -16.9492   18.9137 C   0  0  0  0  0  0  0  0  0  0  0  0
  -11.6889  -18.6774   19.6477 C   0  0  0  0  0  0  0  0  0  0  0  0
  -12.8772  -18.5546   20.7714 N   0  0  0  0  0  0  0  0  0  0  0  0
  -12.9024  -19.6652   21.6689 C   0  0  0  0  0  0  0  0  0  0  0  0
  -12.8094  -20.9726   21.1666 C   0  0  0  0  0  0  0  0  0  0  0  0
  -12.5111  -22.0434   22.0096 C   0  0  0  0  0  0  0  0  0  0  0  0
  -12.2574  -21.9139   23.3194 N   0  0  0  0  0  0  0  0  0  0  0  0
  -12.4262  -20.6705   23.8113 C   0  0  0  0  0  0  0  0  0  0  0  0
  -12.8242  -19.5583   23.0640 C   0  0  0  0  0  0  0  0  0  0  0  0
  -13.2075  -17.0211   21.1562 C   0  0  0  0  0  0  0  0  0  0  0  0
  -12.2755  -15.5884   20.3295 C   0  0  0  0  0  0  0  0  0  0  0  0
   -7.9172  -13.5176   18.1442 H   0  0  0  0  0  0  0  0  0  0  0  0
  -10.0336  -14.6654   14.1883 H   0  0  0  0  0  0  0  0  0  0  0  0
  -10.8745  -14.4046   11.9783 H   0  0  0  0  0  0  0  0  0  0  0  0
  -10.3800  -12.4032   10.6965 H   0  0  0  0  0  0  0  0  0  0  0  0
   -9.5989  -10.3739   12.1643 H   0  0  0  0  0  0  0  0  0  0  0  0
  -10.1205  -17.0405   18.2425 H   0  0  0  0  0  0  0  0  0  0  0  0
  -11.3300  -17.2321   17.8973 H   0  0  0  0  0  0  0  0  0  0  0  0
  -12.0990  -19.2255   18.7723 H   0  0  0  0  0  0  0  0  0  0  0  0
  -10.9618  -19.4375   19.9957 H   0  0  0  0  0  0  0  0  0  0  0  0
  -12.9303  -21.1591   20.1048 H   0  0  0  0  0  0  0  0  0  0  0  0
  -12.4310  -23.0521   21.6166 H   0  0  0  0  0  0  0  0  0  0  0  0
  -12.1751  -20.5647   24.8598 H   0  0  0  0  0  0  0  0  0  0  0  0
  -12.9234  -18.6093   23.5731 H   0  0  0  0  0  0  0  0  0  0  0  0
  -14.2682  -16.8639   20.9258 H   0  0  0  0  0  0  0  0  0  0  0  0
  -13.1198  -16.8559   22.2387 H   0  0  0  0  0  0  0  0  0  0  0  0
  -12.1630  -15.0309   21.2117 H   0  0  0  0  0  0  0  0  0  0  0  0
  -12.8989  -15.4631   19.4934 H   0  0  0  0  0  0  0  0  0  0  0  0
  1  2  2  0
  2  3  1  0
  3  4  1  0
  4  5  2  0
  5  6  1  0
  6  7  2  0
  7  8  1  0
  8  9  2  0
  9 10  1  0
 10 11  2  0
 11 12  1  0
  2 13  1  0
 13 14  1  0
 14 15  1  0
 15 16  1  0
 16 17  1  0
 17 18  2  0
 18 19  1  0
 19 20  2  0
 20 21  1  0
 21 22  2  0
 16 23  1  0
 23 24  1  0
 12  4  1  0
 24 13  1  0
 11  6  1  0
 22 17  1  0
  3 25  1  0
  7 26  1  0
  8 27  1  0
  9 28  1  0
 10 29  1  0
 14 30  1  0
 14 31  1  0
 15 32  1  0
 15 33  1  0
 18 34  1  0
 19 35  1  0
 21 36  1  0
 22 37  1  0
 23 38  1  0
 23 39  1  0
 24 40  1  0
 24 41  1  0
M  END
>  <Energy>  (1170) 
1062.6181201905854

>  <compound_id>  (1170) 
6749

>  <target_id>  (1170) 
1

>  <reference_id>  (1170) 
69

>  <inspiration_ids>  (1170) 
[69, 82]

>  <energy_score>  (1170) 
969.8703355237378

>  <distance_score>  (1170) 
12.046388301688925

>  <path>  (1170) 
/opt/xchem-fragalysis-2/maxwin/BulkDock/SCRATCH/511020/C6749-P69/C6749-P69.minimised.mol

>  <scratch_subdir>  (1170) 
/opt/xchem-fragalysis-2/maxwin/BulkDock/SCRATCH/511020/C6749-P69

>  <fragmenstein_runtime>  (1170) 
29.912855625152588

>  <fragmenstein_outcome>  (1170) 
too moved

>  <fragmenstein_mode>  (1170) 
expansion

>  <fragmenstein_error>  (1170) 


$$$$
C6749-P82
     RDKit          3D

 41 44  0  0  0  0  0  0  0  0999 V2000
   -6.0661  -10.8251   17.1138 O   0  0  0  0  0  0  0  0  0  0  0  0
   -7.1757  -11.0722   16.7021 C   0  0  0  0  0  0  0  0  0  0  0  0
   -7.8508  -10.4103   14.9562 N   0  0  0  0  0  0  0  0  0  0  0  0
   -7.1438   -9.6570   13.8634 C   0  0  0  0  0  0  0  0  0  0  0  0
   -7.1107   -8.5652   13.1020 N   0  0  0  0  0  0  0  0  0  0  0  0
   -5.6682   -8.2577   11.9037 C   0  0  0  0  0  0  0  0  0  0  0  0
   -5.1991   -7.1181   11.1463 C   0  0  0  0  0  0  0  0  0  0  0  0
   -3.8952   -7.0331   10.5888 C   0  0  0  0  0  0  0  0  0  0  0  0
   -3.1304   -8.1663   10.4652 C   0  0  0  0  0  0  0  0  0  0  0  0
   -3.5776   -9.3310   11.0601 C   0  0  0  0  0  0  0  0  0  0  0  0
   -4.6614   -9.1764   12.0123 C   0  0  0  0  0  0  0  0  0  0  0  0
   -5.4244  -10.3419   13.5835 S   0  0  0  0  0  0  0  0  0  0  0  0
   -8.3215  -12.2878   17.6096 N   0  0  0  0  0  0  0  0  0  0  0  0
   -9.4721  -11.9750   18.8698 C   0  0  0  0  0  0  0  0  0  0  0  0
   -9.4075  -13.1763   20.5745 C   0  0  0  0  0  0  0  0  0  0  0  0
  -11.1411  -13.5954   20.7621 N   0  0  0  0  0  0  0  0  0  0  0  0
  -11.8776  -15.2377   21.3622 C   0  0  0  0  0  0  0  0  0  0  0  0
  -12.9226  -15.8886   20.6920 C   0  0  0  0  0  0  0  0  0  0  0  0
  -13.7991  -16.9450   21.2544 C   0  0  0  0  0  0  0  0  0  0  0  0
  -13.8053  -17.4637   22.5074 N   0  0  0  0  0  0  0  0  0  0  0  0
  -12.9312  -16.8964   23.3235 C   0  0  0  0  0  0  0  0  0  0  0  0
  -12.0541  -15.8621   22.8701 C   0  0  0  0  0  0  0  0  0  0  0  0
   -9.8523  -13.9926   19.3273 C   0  0  0  0  0  0  0  0  0  0  0  0
   -8.1023  -13.1372   18.7532 C   0  0  0  0  0  0  0  0  0  0  0  0
   -8.7714  -10.8042   14.7728 H   0  0  0  0  0  0  0  0  0  0  0  0
   -5.6788   -6.1695   11.2470 H   0  0  0  0  0  0  0  0  0  0  0  0
   -3.5257   -6.0956   10.1855 H   0  0  0  0  0  0  0  0  0  0  0  0
   -2.1535   -8.1335    9.9899 H   0  0  0  0  0  0  0  0  0  0  0  0
   -2.9656  -10.2211   11.0018 H   0  0  0  0  0  0  0  0  0  0  0  0
   -9.2460  -10.9807   19.2249 H   0  0  0  0  0  0  0  0  0  0  0  0
  -10.4567  -11.8929   18.3500 H   0  0  0  0  0  0  0  0  0  0  0  0
   -9.7116  -12.4632   21.4223 H   0  0  0  0  0  0  0  0  0  0  0  0
   -9.0808  -13.2496   21.5452 H   0  0  0  0  0  0  0  0  0  0  0  0
  -12.9384  -15.6979   19.6495 H   0  0  0  0  0  0  0  0  0  0  0  0
  -14.5397  -17.4019   20.5978 H   0  0  0  0  0  0  0  0  0  0  0  0
  -13.0207  -17.1511   24.3738 H   0  0  0  0  0  0  0  0  0  0  0  0
  -12.0701  -15.2037   23.6915 H   0  0  0  0  0  0  0  0  0  0  0  0
  -10.5060  -13.5853   18.5946 H   0  0  0  0  0  0  0  0  0  0  0  0
   -9.6987  -15.1076   19.1911 H   0  0  0  0  0  0  0  0  0  0  0  0
   -7.9369  -13.9770   18.1287 H   0  0  0  0  0  0  0  0  0  0  0  0
   -7.2923  -12.9039   19.4367 H   0  0  0  0  0  0  0  0  0  0  0  0
  1  2  2  0
  2  3  1  0
  3  4  1  0
  4  5  2  0
  5  6  1  0
  6  7  2  0
  7  8  1  0
  8  9  2  0
  9 10  1  0
 10 11  2  0
 11 12  1  0
  2 13  1  0
 13 14  1  0
 14 15  1  0
 15 16  1  0
 16 17  1  0
 17 18  2  0
 18 19  1  0
 19 20  2  0
 20 21  1  0
 21 22  2  0
 16 23  1  0
 23 24  1  0
 12  4  1  0
 24 13  1  0
 11  6  1  0
 22 17  1  0
  3 25  1  0
  7 26  1  0
  8 27  1  0
  9 28  1  0
 10 29  1  0
 14 30  1  0
 14 31  1  0
 15 32  1  0
 15 33  1  0
 18 34  1  0
 19 35  1  0
 21 36  1  0
 22 37  1  0
 23 38  1  0
 23 39  1  0
 24 40  1  0
 24 41  1  0
M  END
>  <Energy>  (1171) 
1099.6646131074897

>  <compound_id>  (1171) 
6749

>  <target_id>  (1171) 
1

>  <reference_id>  (1171) 
82

>  <inspiration_ids>  (1171) 
[69, 82]

>  <energy_score>  (1171) 
1006.9168284406569

>  <distance_score>  (1171) 
11.364019160930715

>  <path>  (1171) 
/opt/xchem-fragalysis-2/maxwin/BulkDock/SCRATCH/511020/C6749-P82/C6749-P82.minimised.mol

>  <scratch_subdir>  (1171) 
/opt/xchem-fragalysis-2/maxwin/BulkDock/SCRATCH/511020/C6749-P82

>  <fragmenstein_runtime>  (1171) 
22.016318321228027

>  <fragmenstein_outcome>  (1171) 
too moved

>  <fragmenstein_mode>  (1171) 
expansion

>  <fragmenstein_error>  (1171) 


$$$$
C11057-P69
     RDKit          3D

 45 48  0  0  0  0  0  0  0  0999 V2000
   -7.5267  -13.0689   19.7743 O   0  0  0  0  0  0  0  0  0  0  0  0
   -8.1398  -13.6718   18.9643 C   0  0  0  0  0  0  0  0  0  0  0  0
   -8.3788  -12.4394   17.3009 C   0  0  0  0  0  0  0  0  0  0  0  0
   -8.5381  -11.5512   15.3550 C   0  0  0  0  0  0  0  0  0  0  0  0
   -7.5315  -10.1578   14.2559 C   0  0  0  0  0  0  0  0  0  0  0  0
   -7.5231   -8.9988   13.3708 N   0  0  0  0  0  0  0  0  0  0  0  0
   -5.9618   -8.5448   12.5100 C   0  0  0  0  0  0  0  0  0  0  0  0
   -5.6009   -7.5536   11.3520 C   0  0  0  0  0  0  0  0  0  0  0  0
   -4.3426   -7.2702   10.8097 C   0  0  0  0  0  0  0  0  0  0  0  0
   -3.6343   -8.3896   10.6040 C   0  0  0  0  0  0  0  0  0  0  0  0
   -4.0760   -9.4746   11.3250 C   0  0  0  0  0  0  0  0  0  0  0  0
   -4.9791   -9.4753   12.4923 C   0  0  0  0  0  0  0  0  0  0  0  0
   -5.3752  -10.6270   13.7295 S   0  0  0  0  0  0  0  0  0  0  0  0
   -8.3835  -15.5645   19.5834 N   0  0  0  0  0  0  0  0  0  0  0  0
   -7.0650  -16.9761   19.1014 C   0  0  0  0  0  0  0  0  0  0  0  0
   -6.8300  -18.8215   19.4663 C   0  0  0  0  0  0  0  0  0  0  0  0
   -7.3403  -19.4043   20.7531 N   0  0  0  0  0  0  0  0  0  0  0  0
   -8.5156  -20.6853   21.0948 C   0  0  0  0  0  0  0  0  0  0  0  0
   -9.4776  -21.0696   20.1970 C   0  0  0  0  0  0  0  0  0  0  0  0
  -10.5374  -22.0214   20.5787 C   0  0  0  0  0  0  0  0  0  0  0  0
  -11.0179  -22.1966   21.8439 C   0  0  0  0  0  0  0  0  0  0  0  0
  -10.3396  -21.4751   22.7359 C   0  0  0  0  0  0  0  0  0  0  0  0
   -9.1207  -20.9005   22.4627 N   0  0  0  0  0  0  0  0  0  0  0  0
   -7.2272  -18.2354   21.7151 C   0  0  0  0  0  0  0  0  0  0  0  0
   -7.7027  -16.4985   21.2442 C   0  0  0  0  0  0  0  0  0  0  0  0
   -7.7010  -13.2152   16.9107 H   0  0  0  0  0  0  0  0  0  0  0  0
   -7.6365  -11.7505   17.7391 H   0  0  0  0  0  0  0  0  0  0  0  0
   -9.5200  -11.1036   15.0633 H   0  0  0  0  0  0  0  0  0  0  0  0
   -8.7852  -12.3606   14.6226 H   0  0  0  0  0  0  0  0  0  0  0  0
   -6.1946   -7.8642   10.4592 H   0  0  0  0  0  0  0  0  0  0  0  0
   -4.0480   -6.3283   10.3760 H   0  0  0  0  0  0  0  0  0  0  0  0
   -2.7102   -8.4506   10.0483 H   0  0  0  0  0  0  0  0  0  0  0  0
   -3.6780  -10.3939   11.0547 H   0  0  0  0  0  0  0  0  0  0  0  0
   -6.0245  -16.8457   19.4366 H   0  0  0  0  0  0  0  0  0  0  0  0
   -7.3425  -17.0177   18.0400 H   0  0  0  0  0  0  0  0  0  0  0  0
   -5.7360  -18.9189   19.4679 H   0  0  0  0  0  0  0  0  0  0  0  0
   -7.1797  -19.4222   18.6357 H   0  0  0  0  0  0  0  0  0  0  0  0
   -9.1398  -20.7849   19.1944 H   0  0  0  0  0  0  0  0  0  0  0  0
  -11.0782  -22.5907   19.8400 H   0  0  0  0  0  0  0  0  0  0  0  0
  -11.9193  -22.7426   22.0736 H   0  0  0  0  0  0  0  0  0  0  0  0
  -10.8055  -21.2292   23.6726 H   0  0  0  0  0  0  0  0  0  0  0  0
   -7.6072  -18.4903   22.6926 H   0  0  0  0  0  0  0  0  0  0  0  0
   -6.1565  -18.1191   21.9061 H   0  0  0  0  0  0  0  0  0  0  0  0
   -7.8244  -16.1817   22.2179 H   0  0  0  0  0  0  0  0  0  0  0  0
   -6.6770  -16.2901   21.0123 H   0  0  0  0  0  0  0  0  0  0  0  0
  1  2  2  0
  2  3  1  0
  3  4  1  0
  4  5  1  0
  5  6  2  0
  6  7  1  0
  7  8  2  0
  8  9  1  0
  9 10  2  0
 10 11  1  0
 11 12  2  0
 12 13  1  0
  2 14  1  0
 14 15  1  0
 15 16  1  0
 16 17  1  0
 17 18  1  0
 18 19  2  0
 19 20  1  0
 20 21  2  0
 21 22  1  0
 22 23  2  0
 17 24  1  0
 24 25  1  0
 13  5  1  0
 25 14  1  0
 12  7  1  0
 23 18  1  0
  3 26  1  0
  3 27  1  0
  4 28  1  0
  4 29  1  0
  8 30  1  0
  9 31  1  0
 10 32  1  0
 11 33  1  0
 15 34  1  0
 15 35  1  0
 16 36  1  0
 16 37  1  0
 19 38  1  0
 20 39  1  0
 21 40  1  0
 22 41  1  0
 24 42  1  0
 24 43  1  0
 25 44  1  0
 25 45  1  0
M  END
>  <Energy>  (1172) 
1240.8117111542085

>  <compound_id>  (1172) 
11057

>  <target_id>  (1172) 
1

>  <reference_id>  (1172) 
69

>  <inspiration_ids>  (1172) 
[69, 82]

>  <energy_score>  (1172) 
1119.5382493998504

>  <distance_score>  (1172) 
10.496000880591598

>  <path>  (1172) 
/opt/xchem-fragalysis-2/maxwin/BulkDock/SCRATCH/511020/C11057-P69/C11057-P69.minimised.mol

>  <scratch_subdir>  (1172) 
/opt/xchem-fragalysis-2/maxwin/BulkDock/SCRATCH/511020/C11057-P69

>  <fragmenstein_runtime>  (1172) 
21.65034794807434

>  <fragmenstein_outcome>  (1172) 
too moved

>  <fragmenstein_mode>  (1172) 
expansion

>  <fragmenstein_error>  (1172) 


$$$$
C11057-P82
     RDKit          3D

 45 48  0  0  0  0  0  0  0  0999 V2000
   -4.9752  -11.3582   18.0035 O   0  0  0  0  0  0  0  0  0  0  0  0
   -5.3764  -11.6195   16.9332 C   0  0  0  0  0  0  0  0  0  0  0  0
   -5.7982  -10.3064   15.1917 C   0  0  0  0  0  0  0  0  0  0  0  0
   -5.3975   -9.2414   13.2810 C   0  0  0  0  0  0  0  0  0  0  0  0
   -5.5704   -7.9460   11.5929 C   0  0  0  0  0  0  0  0  0  0  0  0
   -6.4566   -7.6232   10.3077 N   0  0  0  0  0  0  0  0  0  0  0  0
   -6.9452   -5.9840    9.5081 C   0  0  0  0  0  0  0  0  0  0  0  0
   -8.0533   -4.7939    8.8896 C   0  0  0  0  0  0  0  0  0  0  0  0
   -8.1392   -3.8376    7.8207 C   0  0  0  0  0  0  0  0  0  0  0  0
   -7.0220   -3.5706    7.1390 C   0  0  0  0  0  0  0  0  0  0  0  0
   -5.9567   -4.1091    7.8048 C   0  0  0  0  0  0  0  0  0  0  0  0
   -5.9531   -5.3458    9.1607 C   0  0  0  0  0  0  0  0  0  0  0  0
   -4.4936   -6.2981   10.7195 S   0  0  0  0  0  0  0  0  0  0  0  0
   -5.5435  -13.4925   16.5679 N   0  0  0  0  0  0  0  0  0  0  0  0
   -7.0159  -14.5219   16.8447 C   0  0  0  0  0  0  0  0  0  0  0  0
   -7.5974  -16.3366   17.4295 C   0  0  0  0  0  0  0  0  0  0  0  0
   -6.3944  -17.4831   18.3581 N   0  0  0  0  0  0  0  0  0  0  0  0
   -6.2445  -17.8481   19.6571 C   0  0  0  0  0  0  0  0  0  0  0  0
   -5.6302  -18.9991   19.8895 C   0  0  0  0  0  0  0  0  0  0  0  0
   -6.3786  -19.6912   20.7744 C   0  0  0  0  0  0  0  0  0  0  0  0
   -6.8329  -19.1511   21.9501 C   0  0  0  0  0  0  0  0  0  0  0  0
   -7.0691  -17.8683   21.7874 C   0  0  0  0  0  0  0  0  0  0  0  0
   -6.7820  -17.1991   20.6609 N   0  0  0  0  0  0  0  0  0  0  0  0
   -4.8159  -16.8414   17.8975 C   0  0  0  0  0  0  0  0  0  0  0  0
   -5.0471  -15.0405   17.5226 C   0  0  0  0  0  0  0  0  0  0  0  0
   -6.8410   -9.9906   15.4548 H   0  0  0  0  0  0  0  0  0  0  0  0
   -5.5755  -10.9379   14.3042 H   0  0  0  0  0  0  0  0  0  0  0  0
   -6.4881   -8.9670   13.3052 H   0  0  0  0  0  0  0  0  0  0  0  0
   -4.9660  -10.0367   12.6950 H   0  0  0  0  0  0  0  0  0  0  0  0
   -9.0413   -4.7160    9.3926 H   0  0  0  0  0  0  0  0  0  0  0  0
   -9.0756   -3.3249    7.6186 H   0  0  0  0  0  0  0  0  0  0  0  0
   -6.9456   -2.8564    6.3353 H   0  0  0  0  0  0  0  0  0  0  0  0
   -4.9460   -3.7479    7.5288 H   0  0  0  0  0  0  0  0  0  0  0  0
   -7.6691  -13.7173   17.2304 H   0  0  0  0  0  0  0  0  0  0  0  0
   -7.1426  -14.7758   15.7846 H   0  0  0  0  0  0  0  0  0  0  0  0
   -8.0751  -16.9026   16.6449 H   0  0  0  0  0  0  0  0  0  0  0  0
   -8.3601  -16.1172   18.1756 H   0  0  0  0  0  0  0  0  0  0  0  0
   -5.0203  -19.4276   19.1310 H   0  0  0  0  0  0  0  0  0  0  0  0
   -7.3015  -19.9497   20.2302 H   0  0  0  0  0  0  0  0  0  0  0  0
   -7.2862  -19.6946   22.7476 H   0  0  0  0  0  0  0  0  0  0  0  0
   -7.5879  -17.3041   22.5121 H   0  0  0  0  0  0  0  0  0  0  0  0
   -4.3717  -17.3587   17.0405 H   0  0  0  0  0  0  0  0  0  0  0  0
   -4.0910  -17.0279   18.6976 H   0  0  0  0  0  0  0  0  0  0  0  0
   -4.0068  -15.1071   16.9787 H   0  0  0  0  0  0  0  0  0  0  0  0
   -5.5632  -15.7267   16.7653 H   0  0  0  0  0  0  0  0  0  0  0  0
  1  2  2  0
  2  3  1  0
  3  4  1  0
  4  5  1  0
  5  6  2  0
  6  7  1  0
  7  8  2  0
  8  9  1  0
  9 10  2  0
 10 11  1  0
 11 12  2  0
 12 13  1  0
  2 14  1  0
 14 15  1  0
 15 16  1  0
 16 17  1  0
 17 18  1  0
 18 19  2  0
 19 20  1  0
 20 21  2  0
 21 22  1  0
 22 23  2  0
 17 24  1  0
 24 25  1  0
 13  5  1  0
 25 14  1  0
 12  7  1  0
 23 18  1  0
  3 26  1  0
  3 27  1  0
  4 28  1  0
  4 29  1  0
  8 30  1  0
  9 31  1  0
 10 32  1  0
 11 33  1  0
 15 34  1  0
 15 35  1  0
 16 36  1  0
 16 37  1  0
 19 38  1  0
 20 39  1  0
 21 40  1  0
 22 41  1  0
 24 42  1  0
 24 43  1  0
 25 44  1  0
 25 45  1  0
M  END
>  <Energy>  (1173) 
1581.4275547189422

>  <compound_id>  (1173) 
11057

>  <target_id>  (1173) 
1

>  <reference_id>  (1173) 
82

>  <inspiration_ids>  (1173) 
[69, 82]

>  <energy_score>  (1173) 
1460.1540929645903

>  <distance_score>  (1173) 
9.866911417747723

>  <path>  (1173) 
/opt/xchem-fragalysis-2/maxwin/BulkDock/SCRATCH/511020/C11057-P82/C11057-P82.minimised.mol

>  <scratch_subdir>  (1173) 
/opt/xchem-fragalysis-2/maxwin/BulkDock/SCRATCH/511020/C11057-P82

>  <fragmenstein_runtime>  (1173) 
25.554858922958374

>  <fragmenstein_outcome>  (1173) 
too moved

>  <fragmenstein_mode>  (1173) 
expansion

>  <fragmenstein_error>  (1173) 


$$$$
C11058-P69
     RDKit          3D

 48 51  0  0  0  0  0  0  0  0999 V2000
   -2.2477   -7.7492   10.2994 O   0  0  0  0  0  0  0  0  0  0  0  0
   -3.4083   -7.3710   10.4191 C   0  0  0  0  0  0  0  0  0  0  0  0
   -4.6032   -8.6886   11.3623 C   0  0  0  0  0  0  0  0  0  0  0  0
   -4.5912   -9.2475   13.0993 N   0  0  0  0  0  0  0  0  0  0  0  0
   -5.8976  -10.1740   14.1809 C   0  0  0  0  0  0  0  0  0  0  0  0
   -6.8716  -10.5652   13.6708 O   0  0  0  0  0  0  0  0  0  0  0  0
   -5.9152  -10.3831   16.1947 N   0  0  0  0  0  0  0  0  0  0  0  0
   -5.3198  -11.8229   17.3893 C   0  0  0  0  0  0  0  0  0  0  0  0
   -6.3749  -12.3717   18.9945 C   0  0  0  0  0  0  0  0  0  0  0  0
   -8.0344  -13.3317   19.1341 N   0  0  0  0  0  0  0  0  0  0  0  0
   -8.6205  -15.0980   19.3258 C   0  0  0  0  0  0  0  0  0  0  0  0
   -8.0093  -16.1641   18.3453 C   0  0  0  0  0  0  0  0  0  0  0  0
   -6.8702  -17.3858   18.8732 C   0  0  0  0  0  0  0  0  0  0  0  0
   -6.2839  -17.6627   20.1482 C   0  0  0  0  0  0  0  0  0  0  0  0
   -6.8972  -16.8994   21.1021 C   0  0  0  0  0  0  0  0  0  0  0  0
   -8.0063  -15.7538   20.7743 N   0  0  0  0  0  0  0  0  0  0  0  0
   -8.5472  -12.3330   18.1835 C   0  0  0  0  0  0  0  0  0  0  0  0
   -7.2642  -11.0197   17.3565 C   0  0  0  0  0  0  0  0  0  0  0  0
   -4.1413   -6.0026    9.7984 N   0  0  0  0  0  0  0  0  0  0  0  0
   -3.5316   -4.7479    8.6611 C   0  0  0  0  0  0  0  0  0  0  0  0
   -3.8097   -4.6582    7.3009 N   0  0  0  0  0  0  0  0  0  0  0  0
   -4.8503   -3.6343    6.8664 C   0  0  0  0  0  0  0  0  0  0  0  0
   -6.0277   -3.7362    6.0609 C   0  0  0  0  0  0  0  0  0  0  0  0
   -6.8396   -2.6180    5.8036 C   0  0  0  0  0  0  0  0  0  0  0  0
   -6.4974   -1.3743    6.3073 C   0  0  0  0  0  0  0  0  0  0  0  0
   -5.3531   -1.2374    7.0861 C   0  0  0  0  0  0  0  0  0  0  0  0
   -4.6010   -2.3926    7.3525 C   0  0  0  0  0  0  0  0  0  0  0  0
   -3.2360   -2.5991    8.2895 S   0  0  0  0  0  0  0  0  0  0  0  0
   -5.5931   -8.2688   11.1941 H   0  0  0  0  0  0  0  0  0  0  0  0
   -4.3530   -9.5706   10.7797 H   0  0  0  0  0  0  0  0  0  0  0  0
   -3.7672   -9.0556   13.6561 H   0  0  0  0  0  0  0  0  0  0  0  0
   -4.4027  -11.4281   17.8761 H   0  0  0  0  0  0  0  0  0  0  0  0
   -5.2686  -12.8728   17.0961 H   0  0  0  0  0  0  0  0  0  0  0  0
   -6.7671  -12.5715   18.0571 H   0  0  0  0  0  0  0  0  0  0  0  0
   -6.6621  -11.5096   19.5497 H   0  0  0  0  0  0  0  0  0  0  0  0
   -8.1902  -16.2736   17.2941 H   0  0  0  0  0  0  0  0  0  0  0  0
   -6.8261  -18.2646   18.2515 H   0  0  0  0  0  0  0  0  0  0  0  0
   -5.7187  -18.5577   20.3581 H   0  0  0  0  0  0  0  0  0  0  0  0
   -6.9548  -17.2363   22.1385 H   0  0  0  0  0  0  0  0  0  0  0  0
   -8.8999  -11.7858   19.0501 H   0  0  0  0  0  0  0  0  0  0  0  0
   -9.5999  -12.3106   17.8668 H   0  0  0  0  0  0  0  0  0  0  0  0
   -7.3912  -10.0338   17.8851 H   0  0  0  0  0  0  0  0  0  0  0  0
   -7.8579  -11.4204   16.4724 H   0  0  0  0  0  0  0  0  0  0  0  0
   -5.1213   -6.0267   10.0092 H   0  0  0  0  0  0  0  0  0  0  0  0
   -6.3727   -4.6866    5.6652 H   0  0  0  0  0  0  0  0  0  0  0  0
   -7.7422   -2.7387    5.2081 H   0  0  0  0  0  0  0  0  0  0  0  0
   -7.1265   -0.5118    6.1032 H   0  0  0  0  0  0  0  0  0  0  0  0
   -5.0738   -0.2805    7.5121 H   0  0  0  0  0  0  0  0  0  0  0  0
  1  2  2  0
  2  3  1  0
  3  4  1  0
  4  5  1  0
  5  6  2  0
  5  7  1  0
  7  8  1  0
  8  9  1  0
  9 10  1  0
 10 11  1  0
 11 12  2  0
 12 13  1  0
 13 14  2  0
 14 15  1  0
 15 16  2  0
 10 17  1  0
 17 18  1  0
  2 19  1  0
 19 20  1  0
 20 21  2  0
 21 22  1  0
 22 23  2  0
 23 24  1  0
 24 25  2  0
 25 26  1  0
 26 27  2  0
 27 28  1  0
 18  7  1  0
 28 20  1  0
 16 11  1  0
 27 22  1  0
  3 29  1  0
  3 30  1  0
  4 31  1  0
  8 32  1  0
  8 33  1  0
  9 34  1  0
  9 35  1  0
 12 36  1  0
 13 37  1  0
 14 38  1  0
 15 39  1  0
 17 40  1  0
 17 41  1  0
 18 42  1  0
 18 43  1  0
 19 44  1  0
 23 45  1  0
 24 46  1  0
 25 47  1  0
 26 48  1  0
M  END
>  <Energy>  (1174) 
1423.7046391305541

>  <compound_id>  (1174) 
11058

>  <target_id>  (1174) 
1

>  <reference_id>  (1174) 
69

>  <inspiration_ids>  (1174) 
[69, 82]

>  <energy_score>  (1174) 
1354.2093717832909

>  <distance_score>  (1174) 
10.431746855095586

>  <path>  (1174) 
/opt/xchem-fragalysis-2/maxwin/BulkDock/SCRATCH/511020/C11058-P69/C11058-P69.minimised.mol

>  <scratch_subdir>  (1174) 
/opt/xchem-fragalysis-2/maxwin/BulkDock/SCRATCH/511020/C11058-P69

>  <fragmenstein_runtime>  (1174) 
39.38668870925903

>  <fragmenstein_outcome>  (1174) 
too moved

>  <fragmenstein_mode>  (1174) 
expansion

>  <fragmenstein_error>  (1174) 


$$$$
C11058-P82
     RDKit          3D

 48 51  0  0  0  0  0  0  0  0999 V2000
   -7.4393  -10.1731   14.0430 O   0  0  0  0  0  0  0  0  0  0  0  0
   -6.2149  -10.0791   14.2169 C   0  0  0  0  0  0  0  0  0  0  0  0
   -5.6511  -10.9856   16.1811 C   0  0  0  0  0  0  0  0  0  0  0  0
   -5.4892  -13.1022   16.6056 N   0  0  0  0  0  0  0  0  0  0  0  0
   -6.7593  -14.3052   16.9595 C   0  0  0  0  0  0  0  0  0  0  0  0
   -7.7074  -13.8087   17.0976 O   0  0  0  0  0  0  0  0  0  0  0  0
   -6.9317  -16.0956   17.0926 N   0  0  0  0  0  0  0  0  0  0  0  0
   -6.7670  -17.3431   18.6551 C   0  0  0  0  0  0  0  0  0  0  0  0
   -6.5562  -17.4794   20.2779 C   0  0  0  0  0  0  0  0  0  0  0  0
   -7.7011  -16.8612   21.0115 N   0  0  0  0  0  0  0  0  0  0  0  0
   -8.0833  -18.2471   22.2140 C   0  0  0  0  0  0  0  0  0  0  0  0
   -7.7184  -19.6251   22.1880 C   0  0  0  0  0  0  0  0  0  0  0  0
   -9.0020  -21.0280   22.3018 C   0  0  0  0  0  0  0  0  0  0  0  0
  -10.2638  -21.2783   22.8197 C   0  0  0  0  0  0  0  0  0  0  0  0
  -10.4310  -20.1185   23.4213 C   0  0  0  0  0  0  0  0  0  0  0  0
   -9.4810  -18.6705   23.1603 N   0  0  0  0  0  0  0  0  0  0  0  0
   -8.5363  -16.0670   19.3138 C   0  0  0  0  0  0  0  0  0  0  0  0
   -8.0807  -16.8990   17.4505 C   0  0  0  0  0  0  0  0  0  0  0  0
   -5.1459   -9.0780   12.9350 N   0  0  0  0  0  0  0  0  0  0  0  0
   -5.6214   -8.0232   11.4132 C   0  0  0  0  0  0  0  0  0  0  0  0
   -6.5518   -7.6765   10.2483 N   0  0  0  0  0  0  0  0  0  0  0  0
   -6.9695   -5.9995    9.4830 C   0  0  0  0  0  0  0  0  0  0  0  0
   -8.0715   -4.7941    8.8610 C   0  0  0  0  0  0  0  0  0  0  0  0
   -8.1494   -3.8263    7.8057 C   0  0  0  0  0  0  0  0  0  0  0  0
   -7.0269   -3.5633    7.1335 C   0  0  0  0  0  0  0  0  0  0  0  0
   -5.9701   -4.1124    7.8045 C   0  0  0  0  0  0  0  0  0  0  0  0
   -5.9758   -5.3481    9.1592 C   0  0  0  0  0  0  0  0  0  0  0  0
   -4.5255   -6.3282   10.7000 S   0  0  0  0  0  0  0  0  0  0  0  0
   -5.0021  -10.3983   16.8428 H   0  0  0  0  0  0  0  0  0  0  0  0
   -5.4192  -10.9363   14.7587 H   0  0  0  0  0  0  0  0  0  0  0  0
   -4.6085  -13.5899   16.5828 H   0  0  0  0  0  0  0  0  0  0  0  0
   -6.9473  -18.3964   18.3404 H   0  0  0  0  0  0  0  0  0  0  0  0
   -5.6469  -17.4767   18.5089 H   0  0  0  0  0  0  0  0  0  0  0  0
   -5.6165  -17.1991   20.6958 H   0  0  0  0  0  0  0  0  0  0  0  0
   -6.5240  -18.5605   20.3668 H   0  0  0  0  0  0  0  0  0  0  0  0
   -6.7768  -19.8151   21.6775 H   0  0  0  0  0  0  0  0  0  0  0  0
   -9.1260  -21.6466   21.3660 H   0  0  0  0  0  0  0  0  0  0  0  0
  -10.8809  -22.1459   22.7713 H   0  0  0  0  0  0  0  0  0  0  0  0
  -11.2654  -20.0785   24.1251 H   0  0  0  0  0  0  0  0  0  0  0  0
   -8.6436  -14.9569   19.2670 H   0  0  0  0  0  0  0  0  0  0  0  0
   -9.6075  -16.0242   19.5129 H   0  0  0  0  0  0  0  0  0  0  0  0
   -8.2560  -17.9322   17.2375 H   0  0  0  0  0  0  0  0  0  0  0  0
   -8.8315  -16.3865   16.9786 H   0  0  0  0  0  0  0  0  0  0  0  0
   -4.1593   -9.1741   13.1829 H   0  0  0  0  0  0  0  0  0  0  0  0
   -9.0584   -4.7174    9.3666 H   0  0  0  0  0  0  0  0  0  0  0  0
   -9.0824   -3.3079    7.6040 H   0  0  0  0  0  0  0  0  0  0  0  0
   -6.9403   -2.8453    6.3345 H   0  0  0  0  0  0  0  0  0  0  0  0
   -4.9578   -3.7511    7.5335 H   0  0  0  0  0  0  0  0  0  0  0  0
  1  2  2  0
  2  3  1  0
  3  4  1  0
  4  5  1  0
  5  6  2  0
  5  7  1  0
  7  8  1  0
  8  9  1  0
  9 10  1  0
 10 11  1  0
 11 12  2  0
 12 13  1  0
 13 14  2  0
 14 15  1  0
 15 16  2  0
 10 17  1  0
 17 18  1  0
  2 19  1  0
 19 20  1  0
 20 21  2  0
 21 22  1  0
 22 23  2  0
 23 24  1  0
 24 25  2  0
 25 26  1  0
 26 27  2  0
 27 28  1  0
 18  7  1  0
 28 20  1  0
 16 11  1  0
 27 22  1  0
  3 29  1  0
  3 30  1  0
  4 31  1  0
  8 32  1  0
  8 33  1  0
  9 34  1  0
  9 35  1  0
 12 36  1  0
 13 37  1  0
 14 38  1  0
 15 39  1  0
 17 40  1  0
 17 41  1  0
 18 42  1  0
 18 43  1  0
 19 44  1  0
 23 45  1  0
 24 46  1  0
 25 47  1  0
 26 48  1  0
M  END
>  <Energy>  (1175) 
2018.4843533646711

>  <compound_id>  (1175) 
11058

>  <target_id>  (1175) 
1

>  <reference_id>  (1175) 
82

>  <inspiration_ids>  (1175) 
[69, 82]

>  <energy_score>  (1175) 
1948.989086017442

>  <distance_score>  (1175) 
8.17428356803671

>  <path>  (1175) 
/opt/xchem-fragalysis-2/maxwin/BulkDock/SCRATCH/511020/C11058-P82/C11058-P82.minimised.mol

>  <scratch_subdir>  (1175) 
/opt/xchem-fragalysis-2/maxwin/BulkDock/SCRATCH/511020/C11058-P82

>  <fragmenstein_runtime>  (1175) 
29.663005352020264

>  <fragmenstein_outcome>  (1175) 
too moved

>  <fragmenstein_mode>  (1175) 
expansion

>  <fragmenstein_error>  (1175) 


$$$$
C11059-P69
     RDKit          3D

 38 40  0  0  0  0  0  0  0  0999 V2000
   -6.1572  -17.1990   13.4744 C   0  0  0  0  0  0  0  0  0  0  0  0
   -5.3608  -15.8578   13.8037 C   0  0  0  0  0  0  0  0  0  0  0  0
   -4.1368  -16.3979   15.4310 C   0  0  0  0  0  0  0  0  0  0  0  0
   -4.1744  -17.0431   17.2357 C   0  0  0  0  0  0  0  0  0  0  0  0
   -4.4484  -18.3463   17.6659 C   0  0  0  0  0  0  0  0  0  0  0  0
   -5.1884  -18.6055   18.8291 C   0  0  0  0  0  0  0  0  0  0  0  0
   -4.7741  -17.9019   19.8605 C   0  0  0  0  0  0  0  0  0  0  0  0
   -3.6502  -17.1541   19.5645 C   0  0  0  0  0  0  0  0  0  0  0  0
   -3.4187  -16.6758   18.2775 N   0  0  0  0  0  0  0  0  0  0  0  0
   -5.6136  -14.8009   12.1562 N   0  0  0  0  0  0  0  0  0  0  0  0
   -6.2828  -13.0208   11.8710 C   0  0  0  0  0  0  0  0  0  0  0  0
   -6.6444  -12.3400   12.7834 O   0  0  0  0  0  0  0  0  0  0  0  0
   -6.3618  -12.5641   10.1025 N   0  0  0  0  0  0  0  0  0  0  0  0
   -6.8515  -11.0099    9.3021 C   0  0  0  0  0  0  0  0  0  0  0  0
   -7.9158   -9.9219    8.9049 N   0  0  0  0  0  0  0  0  0  0  0  0
   -7.4795   -8.2328    8.3300 C   0  0  0  0  0  0  0  0  0  0  0  0
   -7.9366   -6.4727    7.6026 C   0  0  0  0  0  0  0  0  0  0  0  0
   -7.5121   -5.3038    8.2938 C   0  0  0  0  0  0  0  0  0  0  0  0
   -6.7771   -5.8018    9.4410 C   0  0  0  0  0  0  0  0  0  0  0  0
   -6.1145   -7.3665   10.0035 C   0  0  0  0  0  0  0  0  0  0  0  0
   -6.3675   -8.4473    9.1891 C   0  0  0  0  0  0  0  0  0  0  0  0
   -5.4194   -9.9792    8.9220 S   0  0  0  0  0  0  0  0  0  0  0  0
   -7.1648  -17.0888   13.8798 H   0  0  0  0  0  0  0  0  0  0  0  0
   -6.4336  -17.4606   12.4318 H   0  0  0  0  0  0  0  0  0  0  0  0
   -5.6345  -18.0959   13.7696 H   0  0  0  0  0  0  0  0  0  0  0  0
   -4.4107  -15.4425   13.4957 H   0  0  0  0  0  0  0  0  0  0  0  0
   -3.3742  -15.6497   15.7317 H   0  0  0  0  0  0  0  0  0  0  0  0
   -3.3873  -17.0874   15.0584 H   0  0  0  0  0  0  0  0  0  0  0  0
   -3.4801  -18.8053   17.8947 H   0  0  0  0  0  0  0  0  0  0  0  0
   -5.9525  -19.3512   18.9538 H   0  0  0  0  0  0  0  0  0  0  0  0
   -5.3328  -17.9997   20.7793 H   0  0  0  0  0  0  0  0  0  0  0  0
   -3.0022  -16.6864   20.2994 H   0  0  0  0  0  0  0  0  0  0  0  0
   -5.2817  -15.1795   11.2691 H   0  0  0  0  0  0  0  0  0  0  0  0
   -5.9154  -13.2819    9.5454 H   0  0  0  0  0  0  0  0  0  0  0  0
   -8.9608   -6.2193    7.1738 H   0  0  0  0  0  0  0  0  0  0  0  0
   -7.9748   -4.3338    8.1982 H   0  0  0  0  0  0  0  0  0  0  0  0
   -6.9313   -5.1212   10.2829 H   0  0  0  0  0  0  0  0  0  0  0  0
   -5.4026   -7.3538   10.8371 H   0  0  0  0  0  0  0  0  0  0  0  0
  1  2  1  0
  2  3  1  0
  3  4  1  0
  4  5  2  0
  5  6  1  0
  6  7  2  0
  7  8  1  0
  8  9  2  0
  2 10  1  0
 10 11  1  0
 11 12  2  0
 11 13  1  0
 13 14  1  0
 14 15  2  0
 15 16  1  0
 16 17  2  0
 17 18  1  0
 18 19  2  0
 19 20  1  0
 20 21  2  0
 21 22  1  0
  9  4  1  0
 22 14  1  0
 21 16  1  0
  1 23  1  0
  1 24  1  0
  1 25  1  0
  2 26  1  0
  3 27  1  0
  3 28  1  0
  5 29  1  0
  6 30  1  0
  7 31  1  0
  8 32  1  0
 10 33  1  0
 13 34  1  0
 17 35  1  0
 18 36  1  0
 19 37  1  0
 20 38  1  0
M  END
>  <Energy>  (1176) 
898.71595011827037

>  <compound_id>  (1176) 
11059

>  <target_id>  (1176) 
1

>  <reference_id>  (1176) 
69

>  <inspiration_ids>  (1176) 
[69, 82]

>  <energy_score>  (1176) 
830.4508946972462

>  <distance_score>  (1176) 
12.112583166945859

>  <path>  (1176) 
/opt/xchem-fragalysis-2/maxwin/BulkDock/SCRATCH/511020/C11059-P69/C11059-P69.minimised.mol

>  <scratch_subdir>  (1176) 
/opt/xchem-fragalysis-2/maxwin/BulkDock/SCRATCH/511020/C11059-P69

>  <fragmenstein_runtime>  (1176) 
27.585821628570557

>  <fragmenstein_outcome>  (1176) 
too moved

>  <fragmenstein_mode>  (1176) 
expansion

>  <fragmenstein_error>  (1176) 


$$$$
C11059-P82
     RDKit          3D

 38 40  0  0  0  0  0  0  0  0999 V2000
    1.8652  -11.4025   19.5846 C   0  0  0  0  0  0  0  0  0  0  0  0
    0.6851  -11.8440   18.7219 C   0  0  0  0  0  0  0  0  0  0  0  0
   -0.4209  -12.5844   19.5550 C   0  0  0  0  0  0  0  0  0  0  0  0
   -0.0703  -13.9155   20.2579 C   0  0  0  0  0  0  0  0  0  0  0  0
    0.5625  -13.9301   21.5063 C   0  0  0  0  0  0  0  0  0  0  0  0
    0.9091  -15.1451   22.1114 C   0  0  0  0  0  0  0  0  0  0  0  0
    0.6455  -16.3308   21.4465 C   0  0  0  0  0  0  0  0  0  0  0  0
   -0.0343  -16.2459   20.2420 C   0  0  0  0  0  0  0  0  0  0  0  0
   -0.4024  -15.0792   19.6427 N   0  0  0  0  0  0  0  0  0  0  0  0
    0.1954  -10.6521   17.9596 N   0  0  0  0  0  0  0  0  0  0  0  0
    0.5919  -10.1175   16.5734 C   0  0  0  0  0  0  0  0  0  0  0  0
    1.3968  -10.5194   15.8177 O   0  0  0  0  0  0  0  0  0  0  0  0
   -0.4113   -9.0006   16.4223 N   0  0  0  0  0  0  0  0  0  0  0  0
   -0.7217   -8.2128   15.3345 C   0  0  0  0  0  0  0  0  0  0  0  0
   -0.3008   -8.2728   14.0906 N   0  0  0  0  0  0  0  0  0  0  0  0
   -1.2286   -7.6410   13.2498 C   0  0  0  0  0  0  0  0  0  0  0  0
   -1.2586   -7.6779   11.8373 C   0  0  0  0  0  0  0  0  0  0  0  0
   -2.3457   -7.1363   11.1411 C   0  0  0  0  0  0  0  0  0  0  0  0
   -3.3803   -6.5173   11.8261 C   0  0  0  0  0  0  0  0  0  0  0  0
   -3.3112   -6.3439   13.2096 C   0  0  0  0  0  0  0  0  0  0  0  0
   -2.2487   -6.9512   13.9056 C   0  0  0  0  0  0  0  0  0  0  0  0
   -1.9727   -7.0706   15.6092 S   0  0  0  0  0  0  0  0  0  0  0  0
    1.5374  -10.7290   20.3838 H   0  0  0  0  0  0  0  0  0  0  0  0
    2.6063  -10.8631   18.9839 H   0  0  0  0  0  0  0  0  0  0  0  0
    2.3738  -12.2581   20.0375 H   0  0  0  0  0  0  0  0  0  0  0  0
    1.0672  -12.5376   17.9627 H   0  0  0  0  0  0  0  0  0  0  0  0
   -1.2561  -12.7923   18.8737 H   0  0  0  0  0  0  0  0  0  0  0  0
   -0.8260  -11.8952   20.3070 H   0  0  0  0  0  0  0  0  0  0  0  0
    0.8023  -12.9978   22.0094 H   0  0  0  0  0  0  0  0  0  0  0  0
    1.4147  -15.1500   23.0721 H   0  0  0  0  0  0  0  0  0  0  0  0
    0.9316  -17.2902   21.8571 H   0  0  0  0  0  0  0  0  0  0  0  0
   -0.3146  -17.1449   19.7017 H   0  0  0  0  0  0  0  0  0  0  0  0
   -0.4701  -10.0284   18.3792 H   0  0  0  0  0  0  0  0  0  0  0  0
   -1.0008   -8.9745   17.2258 H   0  0  0  0  0  0  0  0  0  0  0  0
   -0.4688   -8.2000   11.3060 H   0  0  0  0  0  0  0  0  0  0  0  0
   -2.3790   -7.2222   10.0591 H   0  0  0  0  0  0  0  0  0  0  0  0
   -4.2430   -6.1593   11.2760 H   0  0  0  0  0  0  0  0  0  0  0  0
   -4.1074   -5.8385   13.7458 H   0  0  0  0  0  0  0  0  0  0  0  0
  1  2  1  0
  2  3  1  0
  3  4  1  0
  4  5  2  0
  5  6  1  0
  6  7  2  0
  7  8  1  0
  8  9  2  0
  2 10  1  0
 10 11  1  0
 11 12  2  0
 11 13  1  0
 13 14  1  0
 14 15  2  0
 15 16  1  0
 16 17  2  0
 17 18  1  0
 18 19  2  0
 19 20  1  0
 20 21  2  0
 21 22  1  0
  9  4  1  0
 22 14  1  0
 21 16  1  0
  1 23  1  0
  1 24  1  0
  1 25  1  0
  2 26  1  0
  3 27  1  0
  3 28  1  0
  5 29  1  0
  6 30  1  0
  7 31  1  0
  8 32  1  0
 10 33  1  0
 13 34  1  0
 17 35  1  0
 18 36  1  0
 19 37  1  0
 20 38  1  0
M  END
>  <Energy>  (1177) 
-12.779802424469047

>  <compound_id>  (1177) 
11059

>  <target_id>  (1177) 
1

>  <reference_id>  (1177) 
82

>  <inspiration_ids>  (1177) 
[69, 82]

>  <energy_score>  (1177) 
-81.04485784548046

>  <distance_score>  (1177) 
14.518178236656277

>  <path>  (1177) 
/opt/xchem-fragalysis-2/maxwin/BulkDock/SCRATCH/511020/C11059-P82/C11059-P82.minimised.mol

>  <scratch_subdir>  (1177) 
/opt/xchem-fragalysis-2/maxwin/BulkDock/SCRATCH/511020/C11059-P82

>  <fragmenstein_runtime>  (1177) 
33.6130268573761

>  <fragmenstein_outcome>  (1177) 
too moved

>  <fragmenstein_mode>  (1177) 
expansion

>  <fragmenstein_error>  (1177) 


$$$$
C40956-P69
     RDKit          3D

 41 43  0  0  0  0  0  0  0  0999 V2000
  -11.1827  -12.0140   15.9756 C   0  0  0  0  0  0  0  0  0  0  0  0
  -10.1573  -12.1467   17.4853 C   0  0  0  0  0  0  0  0  0  0  0  0
   -8.3035  -12.2292   16.6930 C   0  0  0  0  0  0  0  0  0  0  0  0
   -8.6762  -11.3655   14.9206 C   0  0  0  0  0  0  0  0  0  0  0  0
   -7.8007  -10.2701   14.2915 N   0  0  0  0  0  0  0  0  0  0  0  0
   -7.0064  -10.2680   13.0825 C   0  0  0  0  0  0  0  0  0  0  0  0
   -6.8948  -11.0924   12.2201 O   0  0  0  0  0  0  0  0  0  0  0  0
   -6.0635   -9.0530   12.9234 C   0  0  0  0  0  0  0  0  0  0  0  0
   -6.1263   -7.8458   13.6298 C   0  0  0  0  0  0  0  0  0  0  0  0
   -5.2193   -6.7863   13.3979 C   0  0  0  0  0  0  0  0  0  0  0  0
   -4.0630   -7.0180   12.6356 C   0  0  0  0  0  0  0  0  0  0  0  0
   -3.0361   -6.1222   12.3653 N   0  0  0  0  0  0  0  0  0  0  0  0
   -2.0124   -6.7820   11.8680 C   0  0  0  0  0  0  0  0  0  0  0  0
   -2.2120   -8.4692   11.7006 S   0  0  0  0  0  0  0  0  0  0  0  0
   -3.8728   -8.3053   12.1437 C   0  0  0  0  0  0  0  0  0  0  0  0
   -4.8957   -9.2763   12.1636 C   0  0  0  0  0  0  0  0  0  0  0  0
   -7.1912  -13.7975   16.8305 N   0  0  0  0  0  0  0  0  0  0  0  0
   -6.7483  -14.9431   15.7095 C   0  0  0  0  0  0  0  0  0  0  0  0
   -6.3583  -16.3186   16.3838 C   0  0  0  0  0  0  0  0  0  0  0  0
   -7.1183  -17.4940   16.6641 C   0  0  0  0  0  0  0  0  0  0  0  0
   -6.3057  -18.2983   17.4236 C   0  0  0  0  0  0  0  0  0  0  0  0
   -5.0993  -17.7064   17.5461 O   0  0  0  0  0  0  0  0  0  0  0  0
   -5.0949  -16.5178   16.8243 N   0  0  0  0  0  0  0  0  0  0  0  0
  -11.2435  -12.8874   15.3561 H   0  0  0  0  0  0  0  0  0  0  0  0
  -10.9376  -11.3358   15.1806 H   0  0  0  0  0  0  0  0  0  0  0  0
  -12.1743  -11.5762   16.1695 H   0  0  0  0  0  0  0  0  0  0  0  0
  -10.2643  -12.8570   18.2826 H   0  0  0  0  0  0  0  0  0  0  0  0
  -10.4768  -11.2877   18.0927 H   0  0  0  0  0  0  0  0  0  0  0  0
   -7.7199  -11.7126   17.4699 H   0  0  0  0  0  0  0  0  0  0  0  0
   -9.5109  -10.6859   14.8926 H   0  0  0  0  0  0  0  0  0  0  0  0
   -8.9132  -12.1501   14.1841 H   0  0  0  0  0  0  0  0  0  0  0  0
   -7.7140   -9.3750   14.7431 H   0  0  0  0  0  0  0  0  0  0  0  0
   -6.8854   -7.6646   14.3831 H   0  0  0  0  0  0  0  0  0  0  0  0
   -5.3518   -5.8287   13.8927 H   0  0  0  0  0  0  0  0  0  0  0  0
   -1.0782   -6.3027   11.6036 H   0  0  0  0  0  0  0  0  0  0  0  0
   -4.7135  -10.2528   11.7176 H   0  0  0  0  0  0  0  0  0  0  0  0
   -6.2165  -13.5573   17.0720 H   0  0  0  0  0  0  0  0  0  0  0  0
   -5.8293  -14.6291   15.2098 H   0  0  0  0  0  0  0  0  0  0  0  0
   -7.5086  -15.0805   14.9316 H   0  0  0  0  0  0  0  0  0  0  0  0
   -8.1226  -17.7384   16.3920 H   0  0  0  0  0  0  0  0  0  0  0  0
   -6.4145  -19.2567   17.9091 H   0  0  0  0  0  0  0  0  0  0  0  0
  1  2  1  0
  2  3  1  0
  3  4  1  0
  4  5  1  0
  5  6  1  0
  6  7  2  0
  6  8  1  0
  8  9  2  0
  9 10  1  0
 10 11  2  0
 11 12  1  0
 12 13  2  0
 13 14  1  0
 14 15  1  0
 15 16  2  0
  3 17  1  0
 17 18  1  0
 18 19  1  0
 19 20  1  0
 20 21  2  0
 21 22  1  0
 22 23  1  0
 16  8  1  0
 23 19  2  0
 15 11  1  0
  1 24  1  0
  1 25  1  0
  1 26  1  0
  2 27  1  0
  2 28  1  0
  3 29  1  0
  4 30  1  0
  4 31  1  0
  5 32  1  0
  9 33  1  0
 10 34  1  0
 13 35  1  0
 16 36  1  0
 17 37  1  0
 18 38  1  0
 18 39  1  0
 20 40  1  0
 21 41  1  0
M  END
>  <Energy>  (1178) 
319.84980297028392

>  <compound_id>  (1178) 
40956

>  <target_id>  (1178) 
1

>  <reference_id>  (1178) 
69

>  <inspiration_ids>  (1178) 
[69, 82]

>  <energy_score>  (1178) 
191.3180148009161

>  <distance_score>  (1178) 
13.059946919404387

>  <path>  (1178) 
/opt/xchem-fragalysis-2/maxwin/BulkDock/SCRATCH/511020/C40956-P69/C40956-P69.minimised.mol

>  <scratch_subdir>  (1178) 
/opt/xchem-fragalysis-2/maxwin/BulkDock/SCRATCH/511020/C40956-P69

>  <fragmenstein_runtime>  (1178) 
39.989354848861694

>  <fragmenstein_outcome>  (1178) 
too moved

>  <fragmenstein_mode>  (1178) 
expansion

>  <fragmenstein_error>  (1178) 


$$$$
C40956-P82
     RDKit          3D

 41 43  0  0  0  0  0  0  0  0999 V2000
  -10.8222  -11.4099   23.9845 C   0  0  0  0  0  0  0  0  0  0  0  0
   -9.8603  -11.5039   22.7886 C   0  0  0  0  0  0  0  0  0  0  0  0
  -10.0219  -13.0022   21.4896 C   0  0  0  0  0  0  0  0  0  0  0  0
   -9.0816  -13.2993   19.7250 C   0  0  0  0  0  0  0  0  0  0  0  0
   -7.7904  -12.4598   19.0144 N   0  0  0  0  0  0  0  0  0  0  0  0
   -7.5741  -12.0216   17.6693 C   0  0  0  0  0  0  0  0  0  0  0  0
   -8.2356  -12.2301   16.7224 O   0  0  0  0  0  0  0  0  0  0  0  0
   -6.1633  -10.8342   17.1994 C   0  0  0  0  0  0  0  0  0  0  0  0
   -4.8335  -11.2374   16.8302 C   0  0  0  0  0  0  0  0  0  0  0  0
   -3.9567  -10.5265   15.9192 C   0  0  0  0  0  0  0  0  0  0  0  0
   -4.3394   -9.3346   15.2694 C   0  0  0  0  0  0  0  0  0  0  0  0
   -3.6469   -8.6269   14.2903 N   0  0  0  0  0  0  0  0  0  0  0  0
   -4.3342   -7.5590   13.9489 C   0  0  0  0  0  0  0  0  0  0  0  0
   -5.8040   -7.3107   14.7944 S   0  0  0  0  0  0  0  0  0  0  0  0
   -5.5622   -8.8020   15.6404 C   0  0  0  0  0  0  0  0  0  0  0  0
   -6.4054   -9.4915   16.5713 C   0  0  0  0  0  0  0  0  0  0  0  0
  -11.1630  -14.2105   22.3967 N   0  0  0  0  0  0  0  0  0  0  0  0
  -11.6309  -15.8900   23.1504 C   0  0  0  0  0  0  0  0  0  0  0  0
  -10.5717  -17.2423   24.1307 C   0  0  0  0  0  0  0  0  0  0  0  0
   -9.7341  -18.8579   23.5919 C   0  0  0  0  0  0  0  0  0  0  0  0
  -10.6002  -20.1199   23.5229 C   0  0  0  0  0  0  0  0  0  0  0  0
  -11.6597  -19.7516   24.4548 O   0  0  0  0  0  0  0  0  0  0  0  0
  -11.4609  -17.8647   24.8912 N   0  0  0  0  0  0  0  0  0  0  0  0
  -11.7016  -12.0210   23.9320 H   0  0  0  0  0  0  0  0  0  0  0  0
  -10.3792  -11.5649   24.9687 H   0  0  0  0  0  0  0  0  0  0  0  0
  -11.1758  -10.3940   23.9782 H   0  0  0  0  0  0  0  0  0  0  0  0
   -8.7921  -11.7360   22.7935 H   0  0  0  0  0  0  0  0  0  0  0  0
   -9.3570  -10.5200   22.9453 H   0  0  0  0  0  0  0  0  0  0  0  0
   -9.1081  -13.2709   21.7520 H   0  0  0  0  0  0  0  0  0  0  0  0
   -9.8362  -13.0842   18.9656 H   0  0  0  0  0  0  0  0  0  0  0  0
   -8.7743  -14.3235   19.6136 H   0  0  0  0  0  0  0  0  0  0  0  0
   -7.0995  -12.0503   19.5967 H   0  0  0  0  0  0  0  0  0  0  0  0
   -4.4790  -12.2220   17.0755 H   0  0  0  0  0  0  0  0  0  0  0  0
   -3.0021  -10.9765   15.6542 H   0  0  0  0  0  0  0  0  0  0  0  0
   -3.9891   -6.8653   13.1936 H   0  0  0  0  0  0  0  0  0  0  0  0
   -7.2690   -8.9052   16.8730 H   0  0  0  0  0  0  0  0  0  0  0  0
  -11.3687  -14.5823   21.4486 H   0  0  0  0  0  0  0  0  0  0  0  0
  -12.3843  -16.2829   22.4698 H   0  0  0  0  0  0  0  0  0  0  0  0
  -12.3399  -15.6133   23.9589 H   0  0  0  0  0  0  0  0  0  0  0  0
   -8.6621  -18.9583   23.1837 H   0  0  0  0  0  0  0  0  0  0  0  0
  -10.5778  -21.1409   23.1652 H   0  0  0  0  0  0  0  0  0  0  0  0
  1  2  1  0
  2  3  1  0
  3  4  1  0
  4  5  1  0
  5  6  1  0
  6  7  2  0
  6  8  1  0
  8  9  2  0
  9 10  1  0
 10 11  2  0
 11 12  1  0
 12 13  2  0
 13 14  1  0
 14 15  1  0
 15 16  2  0
  3 17  1  0
 17 18  1  0
 18 19  1  0
 19 20  1  0
 20 21  2  0
 21 22  1  0
 22 23  1  0
 16  8  1  0
 23 19  2  0
 15 11  1  0
  1 24  1  0
  1 25  1  0
  1 26  1  0
  2 27  1  0
  2 28  1  0
  3 29  1  0
  4 30  1  0
  4 31  1  0
  5 32  1  0
  9 33  1  0
 10 34  1  0
 13 35  1  0
 16 36  1  0
 17 37  1  0
 18 38  1  0
 18 39  1  0
 20 40  1  0
 21 41  1  0
M  END
>  <Energy>  (1179) 
747.66233136814299

>  <compound_id>  (1179) 
40956

>  <target_id>  (1179) 
1

>  <reference_id>  (1179) 
82

>  <inspiration_ids>  (1179) 
[69, 82]

>  <energy_score>  (1179) 
619.1305431987671

>  <distance_score>  (1179) 
12.0456038266101

>  <path>  (1179) 
/opt/xchem-fragalysis-2/maxwin/BulkDock/SCRATCH/511020/C40956-P82/C40956-P82.minimised.mol

>  <scratch_subdir>  (1179) 
/opt/xchem-fragalysis-2/maxwin/BulkDock/SCRATCH/511020/C40956-P82

>  <fragmenstein_runtime>  (1179) 
35.21287441253662

>  <fragmenstein_outcome>  (1179) 
too moved

>  <fragmenstein_mode>  (1179) 
expansion

>  <fragmenstein_error>  (1179) 


$$$$
C40957-P69
     RDKit          3D

 44 46  0  0  0  0  0  0  0  0999 V2000
  -12.5692  -16.0556   24.1093 C   0  0  0  0  0  0  0  0  0  0  0  0
  -11.1242  -16.3553   23.8848 C   0  0  0  0  0  0  0  0  0  0  0  0
   -9.2447  -16.2916   24.4241 C   0  0  0  0  0  0  0  0  0  0  0  0
   -7.9829  -16.3573   22.5406 C   0  0  0  0  0  0  0  0  0  0  0  0
   -8.2609  -15.3247   20.6903 N   0  0  0  0  0  0  0  0  0  0  0  0
   -7.6788  -13.4914   20.0386 C   0  0  0  0  0  0  0  0  0  0  0  0
   -7.1596  -12.8354   20.8381 O   0  0  0  0  0  0  0  0  0  0  0  0
   -7.5762  -12.5855   18.3731 C   0  0  0  0  0  0  0  0  0  0  0  0
   -5.8827  -12.4039   18.0925 C   0  0  0  0  0  0  0  0  0  0  0  0
   -4.5710  -11.6592   17.2888 C   0  0  0  0  0  0  0  0  0  0  0  0
   -4.8492  -10.6047   16.4431 C   0  0  0  0  0  0  0  0  0  0  0  0
   -4.0200   -9.9293   15.5775 N   0  0  0  0  0  0  0  0  0  0  0  0
   -4.6999   -8.9787   14.9996 C   0  0  0  0  0  0  0  0  0  0  0  0
   -4.1495   -8.0630   13.9749 C   0  0  0  0  0  0  0  0  0  0  0  0
   -6.3085   -8.8177   15.5064 S   0  0  0  0  0  0  0  0  0  0  0  0
   -6.2449  -10.2835   16.5837 C   0  0  0  0  0  0  0  0  0  0  0  0
   -7.3730  -11.4138   17.5747 C   0  0  0  0  0  0  0  0  0  0  0  0
   -9.4918  -16.9392   26.3492 N   0  0  0  0  0  0  0  0  0  0  0  0
   -9.2299  -18.3925   27.7485 C   0  0  0  0  0  0  0  0  0  0  0  0
   -9.5755  -20.5244   27.8400 C   0  0  0  0  0  0  0  0  0  0  0  0
  -10.9443  -21.4263   27.1038 C   0  0  0  0  0  0  0  0  0  0  0  0
  -11.2962  -22.4591   27.8946 C   0  0  0  0  0  0  0  0  0  0  0  0
  -10.9459  -22.1155   29.1140 O   0  0  0  0  0  0  0  0  0  0  0  0
  -10.2080  -20.9901   29.1618 N   0  0  0  0  0  0  0  0  0  0  0  0
  -12.7723  -15.2642   24.8200 H   0  0  0  0  0  0  0  0  0  0  0  0
  -13.1018  -16.9451   24.3794 H   0  0  0  0  0  0  0  0  0  0  0  0
  -12.9679  -15.9062   23.1077 H   0  0  0  0  0  0  0  0  0  0  0  0
  -11.1096  -16.9703   24.7266 H   0  0  0  0  0  0  0  0  0  0  0  0
  -11.1668  -15.3971   23.3659 H   0  0  0  0  0  0  0  0  0  0  0  0
   -8.7003  -15.5287   25.1068 H   0  0  0  0  0  0  0  0  0  0  0  0
   -8.1449  -17.3692   22.0921 H   0  0  0  0  0  0  0  0  0  0  0  0
   -7.0416  -16.8861   22.7636 H   0  0  0  0  0  0  0  0  0  0  0  0
   -8.7691  -15.7750   19.9615 H   0  0  0  0  0  0  0  0  0  0  0  0
   -5.5948  -13.3584   17.4171 H   0  0  0  0  0  0  0  0  0  0  0  0
   -3.5818  -12.1066   17.2643 H   0  0  0  0  0  0  0  0  0  0  0  0
   -3.1005   -8.3017   13.7718 H   0  0  0  0  0  0  0  0  0  0  0  0
   -4.7042   -8.1513   13.0352 H   0  0  0  0  0  0  0  0  0  0  0  0
   -4.2007   -7.0255   14.3205 H   0  0  0  0  0  0  0  0  0  0  0  0
   -8.0921  -11.7681   16.7639 H   0  0  0  0  0  0  0  0  0  0  0  0
   -8.9963  -16.1835   26.8398 H   0  0  0  0  0  0  0  0  0  0  0  0
   -8.2241  -18.2348   28.1768 H   0  0  0  0  0  0  0  0  0  0  0  0
   -9.9062  -18.0205   28.4873 H   0  0  0  0  0  0  0  0  0  0  0  0
  -11.3598  -21.2007   26.1289 H   0  0  0  0  0  0  0  0  0  0  0  0
  -11.8978  -23.3329   27.7983 H   0  0  0  0  0  0  0  0  0  0  0  0
  1  2  1  0
  2  3  1  0
  3  4  1  0
  4  5  1  0
  5  6  1  0
  6  7  2  0
  6  8  1  0
  8  9  2  0
  9 10  1  0
 10 11  2  0
 11 12  1  0
 12 13  2  0
 13 14  1  0
 13 15  1  0
 15 16  1  0
 16 17  2  0
  3 18  1  0
 18 19  1  0
 19 20  1  0
 20 21  1  0
 21 22  2  0
 22 23  1  0
 23 24  1  0
 17  8  1  0
 24 20  2  0
 16 11  1  0
  1 25  1  0
  1 26  1  0
  1 27  1  0
  2 28  1  0
  2 29  1  0
  3 30  1  0
  4 31  1  0
  4 32  1  0
  5 33  1  0
  9 34  1  0
 10 35  1  0
 14 36  1  0
 14 37  1  0
 14 38  1  0
 17 39  1  0
 18 40  1  0
 19 41  1  0
 19 42  1  0
 21 43  1  0
 22 44  1  0
M  END
>  <Energy>  (1180) 
1459.9848817924546

>  <compound_id>  (1180) 
40957

>  <target_id>  (1180) 
1

>  <reference_id>  (1180) 
69

>  <inspiration_ids>  (1180) 
[69, 82]

>  <energy_score>  (1180) 
1299.9116451957998

>  <distance_score>  (1180) 
12.424826646311

>  <path>  (1180) 
/opt/xchem-fragalysis-2/maxwin/BulkDock/SCRATCH/511020/C40957-P69/C40957-P69.minimised.mol

>  <scratch_subdir>  (1180) 
/opt/xchem-fragalysis-2/maxwin/BulkDock/SCRATCH/511020/C40957-P69

>  <fragmenstein_runtime>  (1180) 
56.69115376472473

>  <fragmenstein_outcome>  (1180) 
too moved

>  <fragmenstein_mode>  (1180) 
expansion

>  <fragmenstein_error>  (1180) 


$$$$
C40957-P82
     RDKit          3D

 44 46  0  0  0  0  0  0  0  0999 V2000
   -9.8072  -10.8083   23.7701 C   0  0  0  0  0  0  0  0  0  0  0  0
  -11.2064  -11.1532   23.8515 C   0  0  0  0  0  0  0  0  0  0  0  0
  -11.5955  -11.2931   22.3976 C   0  0  0  0  0  0  0  0  0  0  0  0
  -11.5761   -9.2329   21.6053 C   0  0  0  0  0  0  0  0  0  0  0  0
  -10.7856   -8.2111   19.9964 N   0  0  0  0  0  0  0  0  0  0  0  0
   -9.2408   -7.2392   19.8133 C   0  0  0  0  0  0  0  0  0  0  0  0
   -8.3300   -7.1221   20.6496 O   0  0  0  0  0  0  0  0  0  0  0  0
   -8.9601   -6.2492   18.5552 C   0  0  0  0  0  0  0  0  0  0  0  0
   -9.9235   -5.6041   17.6920 C   0  0  0  0  0  0  0  0  0  0  0  0
   -9.5877   -4.8749   16.4938 C   0  0  0  0  0  0  0  0  0  0  0  0
   -8.2329   -4.8092   16.1482 C   0  0  0  0  0  0  0  0  0  0  0  0
   -7.6603   -4.7157   14.8858 N   0  0  0  0  0  0  0  0  0  0  0  0
   -6.3697   -4.9413   15.0275 C   0  0  0  0  0  0  0  0  0  0  0  0
   -5.4688   -5.6297   14.0724 C   0  0  0  0  0  0  0  0  0  0  0  0
   -5.7735   -4.5606   16.5936 S   0  0  0  0  0  0  0  0  0  0  0  0
   -7.3304   -5.0123   17.1901 C   0  0  0  0  0  0  0  0  0  0  0  0
   -7.7313   -5.5594   18.4405 C   0  0  0  0  0  0  0  0  0  0  0  0
  -11.0891  -13.2057   21.8872 N   0  0  0  0  0  0  0  0  0  0  0  0
  -11.5235  -14.9237   22.7262 C   0  0  0  0  0  0  0  0  0  0  0  0
  -13.0020  -15.9768   23.0542 C   0  0  0  0  0  0  0  0  0  0  0  0
  -14.0643  -16.4774   22.2232 C   0  0  0  0  0  0  0  0  0  0  0  0
  -14.9475  -17.1153   23.0567 C   0  0  0  0  0  0  0  0  0  0  0  0
  -14.4324  -17.0783   24.2902 O   0  0  0  0  0  0  0  0  0  0  0  0
  -13.2508  -16.3579   24.2771 N   0  0  0  0  0  0  0  0  0  0  0  0
   -9.6069  -11.0077   24.8243 H   0  0  0  0  0  0  0  0  0  0  0  0
   -9.5912   -9.8227   23.3498 H   0  0  0  0  0  0  0  0  0  0  0  0
   -9.1746  -11.3005   23.0392 H   0  0  0  0  0  0  0  0  0  0  0  0
  -11.4588  -11.9970   24.4829 H   0  0  0  0  0  0  0  0  0  0  0  0
  -11.4507  -10.2617   24.4023 H   0  0  0  0  0  0  0  0  0  0  0  0
  -10.5849  -11.6284   22.2707 H   0  0  0  0  0  0  0  0  0  0  0  0
  -11.1834   -8.6361   22.4623 H   0  0  0  0  0  0  0  0  0  0  0  0
  -12.6394   -9.1724   21.6613 H   0  0  0  0  0  0  0  0  0  0  0  0
  -11.2692   -8.1994   19.1658 H   0  0  0  0  0  0  0  0  0  0  0  0
  -10.9776   -5.8132   17.7491 H   0  0  0  0  0  0  0  0  0  0  0  0
  -10.3582   -4.6322   15.7689 H   0  0  0  0  0  0  0  0  0  0  0  0
   -5.2929   -6.6582   14.4081 H   0  0  0  0  0  0  0  0  0  0  0  0
   -4.4996   -5.1302   14.0267 H   0  0  0  0  0  0  0  0  0  0  0  0
   -5.8965   -5.6987   13.0712 H   0  0  0  0  0  0  0  0  0  0  0  0
   -7.0320   -5.5608   19.2610 H   0  0  0  0  0  0  0  0  0  0  0  0
  -11.3441  -13.4387   20.9232 H   0  0  0  0  0  0  0  0  0  0  0  0
  -11.0075  -15.7308   23.1027 H   0  0  0  0  0  0  0  0  0  0  0  0
  -11.6459  -15.3916   21.6982 H   0  0  0  0  0  0  0  0  0  0  0  0
  -14.1454  -16.4348   21.1551 H   0  0  0  0  0  0  0  0  0  0  0  0
  -15.8789  -17.6463   22.9336 H   0  0  0  0  0  0  0  0  0  0  0  0
  1  2  1  0
  2  3  1  0
  3  4  1  0
  4  5  1  0
  5  6  1  0
  6  7  2  0
  6  8  1  0
  8  9  2  0
  9 10  1  0
 10 11  2  0
 11 12  1  0
 12 13  2  0
 13 14  1  0
 13 15  1  0
 15 16  1  0
 16 17  2  0
  3 18  1  0
 18 19  1  0
 19 20  1  0
 20 21  1  0
 21 22  2  0
 22 23  1  0
 23 24  1  0
 17  8  1  0
 24 20  2  0
 16 11  1  0
  1 25  1  0
  1 26  1  0
  1 27  1  0
  2 28  1  0
  2 29  1  0
  3 30  1  0
  4 31  1  0
  4 32  1  0
  5 33  1  0
  9 34  1  0
 10 35  1  0
 14 36  1  0
 14 37  1  0
 14 38  1  0
 17 39  1  0
 18 40  1  0
 19 41  1  0
 19 42  1  0
 21 43  1  0
 22 44  1  0
M  END
>  <Energy>  (1181) 
759.76809349569646

>  <compound_id>  (1181) 
40957

>  <target_id>  (1181) 
1

>  <reference_id>  (1181) 
82

>  <inspiration_ids>  (1181) 
[69, 82]

>  <energy_score>  (1181) 
599.6948568990113

>  <distance_score>  (1181) 
11.853153278713199

>  <path>  (1181) 
/opt/xchem-fragalysis-2/maxwin/BulkDock/SCRATCH/511020/C40957-P82/C40957-P82.minimised.mol

>  <scratch_subdir>  (1181) 
/opt/xchem-fragalysis-2/maxwin/BulkDock/SCRATCH/511020/C40957-P82

>  <fragmenstein_runtime>  (1181) 
37.61763668060303

>  <fragmenstein_outcome>  (1181) 
too moved

>  <fragmenstein_mode>  (1181) 
expansion

>  <fragmenstein_error>  (1181) 


$$$$
C23545-P69
     RDKit          3D

 39 41  0  0  0  0  0  0  0  0999 V2000
   -8.2866  -17.3362   18.7083 C   0  0  0  0  0  0  0  0  0  0  0  0
   -8.5423  -16.0231   19.5595 C   0  0  0  0  0  0  0  0  0  0  0  0
   -8.2601  -16.6760   21.0275 C   0  0  0  0  0  0  0  0  0  0  0  0
   -9.1298  -17.8184   21.4608 N   0  0  0  0  0  0  0  0  0  0  0  0
  -10.3601  -17.7620   22.0788 C   0  0  0  0  0  0  0  0  0  0  0  0
  -10.7403  -19.0601   22.3372 C   0  0  0  0  0  0  0  0  0  0  0  0
   -9.6531  -19.8348   21.9022 C   0  0  0  0  0  0  0  0  0  0  0  0
   -8.6369  -19.0830   21.4638 N   0  0  0  0  0  0  0  0  0  0  0  0
   -8.1082  -14.7402   18.3057 N   0  0  0  0  0  0  0  0  0  0  0  0
   -8.5515  -12.8431   18.2094 C   0  0  0  0  0  0  0  0  0  0  0  0
   -9.0947  -12.1391   18.9934 O   0  0  0  0  0  0  0  0  0  0  0  0
   -8.0415  -12.5333   16.5365 N   0  0  0  0  0  0  0  0  0  0  0  0
   -8.3022  -10.9079   15.2328 C   0  0  0  0  0  0  0  0  0  0  0  0
   -7.3569   -9.7873   13.7488 C   0  0  0  0  0  0  0  0  0  0  0  0
   -7.4642   -8.5595   13.0136 N   0  0  0  0  0  0  0  0  0  0  0  0
   -6.3931   -8.2013   11.4603 C   0  0  0  0  0  0  0  0  0  0  0  0
   -6.4736   -8.0298    9.9971 C   0  0  0  0  0  0  0  0  0  0  0  0
   -6.5507   -6.4538    9.5064 C   0  0  0  0  0  0  0  0  0  0  0  0
   -6.8874   -5.3301   10.0962 C   0  0  0  0  0  0  0  0  0  0  0  0
   -6.1474   -5.6931   11.5531 C   0  0  0  0  0  0  0  0  0  0  0  0
   -5.5424   -7.2515   11.7399 C   0  0  0  0  0  0  0  0  0  0  0  0
   -5.3681   -9.0096   12.9110 S   0  0  0  0  0  0  0  0  0  0  0  0
   -9.0973  -18.0620   18.8313 H   0  0  0  0  0  0  0  0  0  0  0  0
   -8.2170  -17.1087   17.6461 H   0  0  0  0  0  0  0  0  0  0  0  0
   -7.3416  -17.8159   18.9833 H   0  0  0  0  0  0  0  0  0  0  0  0
   -9.6140  -15.9670   19.4608 H   0  0  0  0  0  0  0  0  0  0  0  0
   -8.3929  -16.0156   21.8683 H   0  0  0  0  0  0  0  0  0  0  0  0
   -7.2528  -17.1080   21.0462 H   0  0  0  0  0  0  0  0  0  0  0  0
  -10.8728  -16.8244   22.2242 H   0  0  0  0  0  0  0  0  0  0  0  0
  -11.6766  -19.4053   22.7529 H   0  0  0  0  0  0  0  0  0  0  0  0
   -9.5467  -20.9143   21.9069 H   0  0  0  0  0  0  0  0  0  0  0  0
   -7.5635  -15.0447   17.5045 H   0  0  0  0  0  0  0  0  0  0  0  0
   -7.6866  -13.3832   16.1406 H   0  0  0  0  0  0  0  0  0  0  0  0
   -7.4499  -10.1631   15.4298 H   0  0  0  0  0  0  0  0  0  0  0  0
   -8.6962  -11.4876   14.3861 H   0  0  0  0  0  0  0  0  0  0  0  0
   -5.5959   -8.4905    9.4996 H   0  0  0  0  0  0  0  0  0  0  0  0
   -5.4849   -6.2222    9.9168 H   0  0  0  0  0  0  0  0  0  0  0  0
   -7.7270   -4.8214    9.6712 H   0  0  0  0  0  0  0  0  0  0  0  0
   -7.0227   -5.5710   12.2593 H   0  0  0  0  0  0  0  0  0  0  0  0
  1  2  1  0
  2  3  1  0
  3  4  1  0
  4  5  1  0
  5  6  2  0
  6  7  1  0
  7  8  2  0
  2  9  1  0
  9 10  1  0
 10 11  2  0
 10 12  1  0
 12 13  1  0
 13 14  1  0
 14 15  2  0
 15 16  1  0
 16 17  2  0
 17 18  1  0
 18 19  2  0
 19 20  1  0
 20 21  2  0
 21 22  1  0
  8  4  1  0
 22 14  1  0
 21 16  1  0
  1 23  1  0
  1 24  1  0
  1 25  1  0
  2 26  1  0
  3 27  1  0
  3 28  1  0
  5 29  1  0
  6 30  1  0
  7 31  1  0
  9 32  1  0
 12 33  1  0
 13 34  1  0
 13 35  1  0
 17 36  1  0
 18 37  1  0
 19 38  1  0
 20 39  1  0
M  END
>  <Energy>  (1182) 
1051.9119972554058

>  <compound_id>  (1182) 
23545

>  <target_id>  (1182) 
1

>  <reference_id>  (1182) 
69

>  <inspiration_ids>  (1182) 
[69, 82]

>  <energy_score>  (1182) 
1037.2197715523553

>  <distance_score>  (1182) 
10.217918554969765

>  <path>  (1182) 
/opt/xchem-fragalysis-2/maxwin/BulkDock/SCRATCH/511020/C23545-P69/C23545-P69.minimised.mol

>  <scratch_subdir>  (1182) 
/opt/xchem-fragalysis-2/maxwin/BulkDock/SCRATCH/511020/C23545-P69

>  <fragmenstein_runtime>  (1182) 
23.806026697158813

>  <fragmenstein_outcome>  (1182) 
too moved

>  <fragmenstein_mode>  (1182) 
expansion

>  <fragmenstein_error>  (1182) 


$$$$
C23545-P82
     RDKit          3D

 39 41  0  0  0  0  0  0  0  0999 V2000
  -12.1921  -20.7000   17.7952 C   0  0  0  0  0  0  0  0  0  0  0  0
  -13.1208  -19.4900   17.9700 C   0  0  0  0  0  0  0  0  0  0  0  0
  -12.7969  -18.7856   19.3492 C   0  0  0  0  0  0  0  0  0  0  0  0
  -12.8701  -19.6003   20.5777 N   0  0  0  0  0  0  0  0  0  0  0  0
  -13.9430  -19.7143   21.4291 C   0  0  0  0  0  0  0  0  0  0  0  0
  -13.5212  -20.4432   22.5194 C   0  0  0  0  0  0  0  0  0  0  0  0
  -12.1720  -20.7222   22.2548 C   0  0  0  0  0  0  0  0  0  0  0  0
  -11.7601  -20.1983   21.0923 N   0  0  0  0  0  0  0  0  0  0  0  0
  -13.1352  -18.6244   16.6911 N   0  0  0  0  0  0  0  0  0  0  0  0
  -14.1494  -17.5926   16.1964 C   0  0  0  0  0  0  0  0  0  0  0  0
  -15.1069  -17.1771   16.7296 O   0  0  0  0  0  0  0  0  0  0  0  0
  -13.5759  -17.2326   14.7910 N   0  0  0  0  0  0  0  0  0  0  0  0
  -14.1275  -16.3505   13.7071 C   0  0  0  0  0  0  0  0  0  0  0  0
  -13.3913  -15.6740   12.4849 C   0  0  0  0  0  0  0  0  0  0  0  0
  -14.0886  -15.2346   11.4358 N   0  0  0  0  0  0  0  0  0  0  0  0
  -13.3445  -14.4331   10.5619 C   0  0  0  0  0  0  0  0  0  0  0  0
  -13.8404  -13.6902    9.4563 C   0  0  0  0  0  0  0  0  0  0  0  0
  -13.0172  -12.8103    8.7363 C   0  0  0  0  0  0  0  0  0  0  0  0
  -11.6915  -12.6579    9.0998 C   0  0  0  0  0  0  0  0  0  0  0  0
  -11.1744  -13.3849   10.1829 C   0  0  0  0  0  0  0  0  0  0  0  0
  -12.0024  -14.2954   10.9036 C   0  0  0  0  0  0  0  0  0  0  0  0
  -11.7282  -15.2637   12.3587 S   0  0  0  0  0  0  0  0  0  0  0  0
  -12.4066  -21.2095   16.8494 H   0  0  0  0  0  0  0  0  0  0  0  0
  -11.1437  -20.3844   17.7670 H   0  0  0  0  0  0  0  0  0  0  0  0
  -12.3187  -21.4317   18.5981 H   0  0  0  0  0  0  0  0  0  0  0  0
  -14.1517  -19.8593   18.0416 H   0  0  0  0  0  0  0  0  0  0  0  0
  -11.7869  -18.3584   19.3165 H   0  0  0  0  0  0  0  0  0  0  0  0
  -13.4896  -17.9474   19.4926 H   0  0  0  0  0  0  0  0  0  0  0  0
  -14.8990  -19.2678   21.1920 H   0  0  0  0  0  0  0  0  0  0  0  0
  -14.1094  -20.7274   23.3817 H   0  0  0  0  0  0  0  0  0  0  0  0
  -11.4705  -21.2799   22.8611 H   0  0  0  0  0  0  0  0  0  0  0  0
  -12.3846  -18.6976   16.0260 H   0  0  0  0  0  0  0  0  0  0  0  0
  -12.7901  -17.8228   14.5920 H   0  0  0  0  0  0  0  0  0  0  0  0
  -14.9311  -16.9545   13.2658 H   0  0  0  0  0  0  0  0  0  0  0  0
  -14.6315  -15.5343   14.2407 H   0  0  0  0  0  0  0  0  0  0  0  0
  -14.8905  -13.7893    9.1960 H   0  0  0  0  0  0  0  0  0  0  0  0
  -13.4286  -12.2434    7.9054 H   0  0  0  0  0  0  0  0  0  0  0  0
  -11.0604  -11.9533    8.5649 H   0  0  0  0  0  0  0  0  0  0  0  0
  -10.1696  -13.1627   10.5198 H   0  0  0  0  0  0  0  0  0  0  0  0
  1  2  1  0
  2  3  1  0
  3  4  1  0
  4  5  1  0
  5  6  2  0
  6  7  1  0
  7  8  2  0
  2  9  1  0
  9 10  1  0
 10 11  2  0
 10 12  1  0
 12 13  1  0
 13 14  1  0
 14 15  2  0
 15 16  1  0
 16 17  2  0
 17 18  1  0
 18 19  2  0
 19 20  1  0
 20 21  2  0
 21 22  1  0
  8  4  1  0
 22 14  1  0
 21 16  1  0
  1 23  1  0
  1 24  1  0
  1 25  1  0
  2 26  1  0
  3 27  1  0
  3 28  1  0
  5 29  1  0
  6 30  1  0
  7 31  1  0
  9 32  1  0
 12 33  1  0
 13 34  1  0
 13 35  1  0
 17 36  1  0
 18 37  1  0
 19 38  1  0
 20 39  1  0
M  END
>  <Energy>  (1183) 
2.9699451125681331

>  <compound_id>  (1183) 
23545

>  <target_id>  (1183) 
1

>  <reference_id>  (1183) 
82

>  <inspiration_ids>  (1183) 
[69, 82]

>  <energy_score>  (1183) 
-11.722280590476373

>  <distance_score>  (1183) 
13.090751140544699

>  <path>  (1183) 
/opt/xchem-fragalysis-2/maxwin/BulkDock/SCRATCH/511020/C23545-P82/C23545-P82.minimised.mol

>  <scratch_subdir>  (1183) 
/opt/xchem-fragalysis-2/maxwin/BulkDock/SCRATCH/511020/C23545-P82

>  <fragmenstein_runtime>  (1183) 
38.97783017158508

>  <fragmenstein_outcome>  (1183) 
too moved

>  <fragmenstein_mode>  (1183) 
expansion

>  <fragmenstein_error>  (1183) 


$$$$
C40958-P69
     RDKit          3D

 39 41  0  0  0  0  0  0  0  0999 V2000
   -8.0428  -12.8799   18.3399 O   0  0  0  0  0  0  0  0  0  0  0  0
   -8.9451  -12.6746   19.0986 C   0  0  0  0  0  0  0  0  0  0  0  0
   -8.8893  -13.0818   20.8498 N   0  0  0  0  0  0  0  0  0  0  0  0
   -7.7341  -13.6375   21.7354 C   0  0  0  0  0  0  0  0  0  0  0  0
   -7.9037  -14.9570   22.6912 C   0  0  0  0  0  0  0  0  0  0  0  0
   -9.1379  -14.8853   23.4531 O   0  0  0  0  0  0  0  0  0  0  0  0
   -7.6894  -16.4197   22.1722 C   0  0  0  0  0  0  0  0  0  0  0  0
   -8.8415  -17.2378   21.7592 N   0  0  0  0  0  0  0  0  0  0  0  0
   -9.5178  -17.8938   22.8650 C   0  0  0  0  0  0  0  0  0  0  0  0
  -10.3745  -19.0343   22.4241 C   0  0  0  0  0  0  0  0  0  0  0  0
  -10.2778  -19.8417   21.2682 C   0  0  0  0  0  0  0  0  0  0  0  0
  -11.2683  -20.7732   21.4254 C   0  0  0  0  0  0  0  0  0  0  0  0
  -11.9258  -20.5466   22.5883 O   0  0  0  0  0  0  0  0  0  0  0  0
  -11.3646  -19.4538   23.2282 N   0  0  0  0  0  0  0  0  0  0  0  0
  -10.4223  -12.0408   18.1498 C   0  0  0  0  0  0  0  0  0  0  0  0
  -11.5816  -11.3592   18.3008 C   0  0  0  0  0  0  0  0  0  0  0  0
  -13.0107  -11.0022   17.3511 C   0  0  0  0  0  0  0  0  0  0  0  0
  -12.5842  -10.6331   16.0162 C   0  0  0  0  0  0  0  0  0  0  0  0
  -12.7030   -9.2530   14.4476 S   0  0  0  0  0  0  0  0  0  0  0  0
  -10.6063   -9.3466   14.2113 C   0  0  0  0  0  0  0  0  0  0  0  0
  -10.0703  -10.2575   14.9977 N   0  0  0  0  0  0  0  0  0  0  0  0
  -11.1749  -11.0866   15.8609 C   0  0  0  0  0  0  0  0  0  0  0  0
  -10.7664  -12.1076   16.7697 C   0  0  0  0  0  0  0  0  0  0  0  0
   -9.7384  -12.7235   21.3147 H   0  0  0  0  0  0  0  0  0  0  0  0
   -7.7257  -12.8683   22.5268 H   0  0  0  0  0  0  0  0  0  0  0  0
   -6.7593  -13.4836   21.2856 H   0  0  0  0  0  0  0  0  0  0  0  0
   -7.1068  -14.8095   23.4352 H   0  0  0  0  0  0  0  0  0  0  0  0
   -8.9790  -15.3931   24.2703 H   0  0  0  0  0  0  0  0  0  0  0  0
   -6.9910  -16.3966   21.3342 H   0  0  0  0  0  0  0  0  0  0  0  0
   -7.1410  -16.9663   22.9517 H   0  0  0  0  0  0  0  0  0  0  0  0
   -9.4948  -16.6379   21.2394 H   0  0  0  0  0  0  0  0  0  0  0  0
   -8.7552  -18.2885   23.5288 H   0  0  0  0  0  0  0  0  0  0  0  0
  -10.1256  -17.1694   23.4153 H   0  0  0  0  0  0  0  0  0  0  0  0
   -9.5710  -19.7665   20.4554 H   0  0  0  0  0  0  0  0  0  0  0  0
  -11.6066  -21.6211   20.8486 H   0  0  0  0  0  0  0  0  0  0  0  0
  -11.3418  -10.4340   18.8788 H   0  0  0  0  0  0  0  0  0  0  0  0
  -13.7662  -10.5161   17.9530 H   0  0  0  0  0  0  0  0  0  0  0  0
  -10.1377   -9.2665   13.2479 H   0  0  0  0  0  0  0  0  0  0  0  0
  -10.8712  -12.8747   16.0383 H   0  0  0  0  0  0  0  0  0  0  0  0
  1  2  2  0
  2  3  1  0
  3  4  1  0
  4  5  1  0
  5  6  1  0
  5  7  1  0
  7  8  1  0
  8  9  1  0
  9 10  1  0
 10 11  1  0
 11 12  2  0
 12 13  1  0
 13 14  1  0
  2 15  1  0
 15 16  2  0
 16 17  1  0
 17 18  2  0
 18 19  1  0
 19 20  1  0
 20 21  2  0
 21 22  1  0
 22 23  2  0
 14 10  2  0
 23 15  1  0
 22 18  1  0
  3 24  1  0
  4 25  1  0
  4 26  1  0
  5 27  1  0
  6 28  1  0
  7 29  1  0
  7 30  1  0
  8 31  1  0
  9 32  1  0
  9 33  1  0
 11 34  1  0
 12 35  1  0
 16 36  1  0
 17 37  1  0
 20 38  1  0
 23 39  1  0
M  END
>  <Energy>  (1184) 
444.66415685692601

>  <compound_id>  (1184) 
40958

>  <target_id>  (1184) 
1

>  <reference_id>  (1184) 
69

>  <inspiration_ids>  (1184) 
[69, 82]

>  <energy_score>  (1184) 
296.7535266833604

>  <distance_score>  (1184) 
13.221948946555834

>  <path>  (1184) 
/opt/xchem-fragalysis-2/maxwin/BulkDock/SCRATCH/511020/C40958-P69/C40958-P69.minimised.mol

>  <scratch_subdir>  (1184) 
/opt/xchem-fragalysis-2/maxwin/BulkDock/SCRATCH/511020/C40958-P69

>  <fragmenstein_runtime>  (1184) 
29.824588537216187

>  <fragmenstein_outcome>  (1184) 
too moved

>  <fragmenstein_mode>  (1184) 
expansion

>  <fragmenstein_error>  (1184) 


$$$$
C40958-P82
     RDKit          3D

 39 41  0  0  0  0  0  0  0  0999 V2000
   -8.9253  -13.1724   19.1343 O   0  0  0  0  0  0  0  0  0  0  0  0
   -7.7661  -12.8238   19.1246 C   0  0  0  0  0  0  0  0  0  0  0  0
   -6.6380  -13.0215   20.2073 N   0  0  0  0  0  0  0  0  0  0  0  0
   -6.7023  -13.6353   21.6645 C   0  0  0  0  0  0  0  0  0  0  0  0
   -7.5074  -14.9065   22.4011 C   0  0  0  0  0  0  0  0  0  0  0  0
   -8.7549  -14.5311   23.0396 O   0  0  0  0  0  0  0  0  0  0  0  0
   -7.6646  -16.3607   21.8333 C   0  0  0  0  0  0  0  0  0  0  0  0
   -8.5616  -17.2321   22.6788 N   0  0  0  0  0  0  0  0  0  0  0  0
   -8.6382  -18.5970   22.0977 C   0  0  0  0  0  0  0  0  0  0  0  0
   -9.9938  -19.2286   22.2841 C   0  0  0  0  0  0  0  0  0  0  0  0
  -10.4468  -20.4509   21.7244 C   0  0  0  0  0  0  0  0  0  0  0  0
  -11.7332  -20.5758   22.1754 C   0  0  0  0  0  0  0  0  0  0  0  0
  -12.0487  -19.5065   22.9425 O   0  0  0  0  0  0  0  0  0  0  0  0
  -10.9586  -18.6579   23.0255 N   0  0  0  0  0  0  0  0  0  0  0  0
   -7.4711  -11.9373   17.8137 C   0  0  0  0  0  0  0  0  0  0  0  0
   -8.2559  -12.1050   16.4981 C   0  0  0  0  0  0  0  0  0  0  0  0
   -8.4525  -11.1607   14.9668 C   0  0  0  0  0  0  0  0  0  0  0  0
   -7.4895   -9.7092   15.1334 C   0  0  0  0  0  0  0  0  0  0  0  0
   -7.2218   -8.6718   17.2512 S   0  0  0  0  0  0  0  0  0  0  0  0
   -6.7526   -7.1400   17.0931 C   0  0  0  0  0  0  0  0  0  0  0  0
   -6.8135   -7.9353   16.1303 N   0  0  0  0  0  0  0  0  0  0  0  0
   -6.5802   -9.7633   16.3455 C   0  0  0  0  0  0  0  0  0  0  0  0
   -6.4825  -11.0070   17.4109 C   0  0  0  0  0  0  0  0  0  0  0  0
   -5.7631  -12.6796   19.8453 H   0  0  0  0  0  0  0  0  0  0  0  0
   -6.8857  -12.7746   22.3168 H   0  0  0  0  0  0  0  0  0  0  0  0
   -5.6424  -13.8856   21.8178 H   0  0  0  0  0  0  0  0  0  0  0  0
   -6.8554  -15.0540   23.2772 H   0  0  0  0  0  0  0  0  0  0  0  0
   -8.9043  -15.2434   23.6950 H   0  0  0  0  0  0  0  0  0  0  0  0
   -6.6712  -16.8176   21.7561 H   0  0  0  0  0  0  0  0  0  0  0  0
   -8.0913  -16.3097   20.8279 H   0  0  0  0  0  0  0  0  0  0  0  0
   -9.5069  -16.8486   22.5586 H   0  0  0  0  0  0  0  0  0  0  0  0
   -7.8504  -19.2153   22.5355 H   0  0  0  0  0  0  0  0  0  0  0  0
   -8.4580  -18.5613   21.0152 H   0  0  0  0  0  0  0  0  0  0  0  0
   -9.9113  -21.1459   21.0931 H   0  0  0  0  0  0  0  0  0  0  0  0
  -12.5123  -21.3133   22.0522 H   0  0  0  0  0  0  0  0  0  0  0  0
   -8.0906  -13.1655   16.3940 H   0  0  0  0  0  0  0  0  0  0  0  0
   -8.7211  -11.5351   13.9872 H   0  0  0  0  0  0  0  0  0  0  0  0
   -6.5572   -6.1022   17.3015 H   0  0  0  0  0  0  0  0  0  0  0  0
   -5.4533  -11.2689   17.6453 H   0  0  0  0  0  0  0  0  0  0  0  0
  1  2  2  0
  2  3  1  0
  3  4  1  0
  4  5  1  0
  5  6  1  0
  5  7  1  0
  7  8  1  0
  8  9  1  0
  9 10  1  0
 10 11  1  0
 11 12  2  0
 12 13  1  0
 13 14  1  0
  2 15  1  0
 15 16  2  0
 16 17  1  0
 17 18  2  0
 18 19  1  0
 19 20  1  0
 20 21  2  0
 21 22  1  0
 22 23  2  0
 14 10  2  0
 23 15  1  0
 22 18  1  0
  3 24  1  0
  4 25  1  0
  4 26  1  0
  5 27  1  0
  6 28  1  0
  7 29  1  0
  7 30  1  0
  8 31  1  0
  9 32  1  0
  9 33  1  0
 11 34  1  0
 12 35  1  0
 16 36  1  0
 17 37  1  0
 20 38  1  0
 23 39  1  0
M  END
>  <Energy>  (1185) 
715.56222301221953

>  <compound_id>  (1185) 
40958

>  <target_id>  (1185) 
1

>  <reference_id>  (1185) 
82

>  <inspiration_ids>  (1185) 
[69, 82]

>  <energy_score>  (1185) 
567.6515928386511

>  <distance_score>  (1185) 
12.703824650479763

>  <path>  (1185) 
/opt/xchem-fragalysis-2/maxwin/BulkDock/SCRATCH/511020/C40958-P82/C40958-P82.minimised.mol

>  <scratch_subdir>  (1185) 
/opt/xchem-fragalysis-2/maxwin/BulkDock/SCRATCH/511020/C40958-P82

>  <fragmenstein_runtime>  (1185) 
24.2021906375885

>  <fragmenstein_outcome>  (1185) 
too moved

>  <fragmenstein_mode>  (1185) 
expansion

>  <fragmenstein_error>  (1185) 


$$$$
C52436-P69
     RDKit          3D

 36 38  0  0  0  0  0  0  0  0999 V2000
  -12.2434  -15.8504   23.0483 C   0  0  0  0  0  0  0  0  0  0  0  0
  -12.4761  -15.9952   21.5436 O   0  0  0  0  0  0  0  0  0  0  0  0
  -11.2969  -15.4793   20.1796 C   0  0  0  0  0  0  0  0  0  0  0  0
   -9.2956  -15.3305   19.5290 C   0  0  0  0  0  0  0  0  0  0  0  0
   -8.9826  -15.0730   17.9879 O   0  0  0  0  0  0  0  0  0  0  0  0
   -8.8463  -13.7374   17.4769 C   0  0  0  0  0  0  0  0  0  0  0  0
   -9.1548  -12.7462   18.1248 O   0  0  0  0  0  0  0  0  0  0  0  0
   -8.2769  -13.7041   16.0351 C   0  0  0  0  0  0  0  0  0  0  0  0
   -8.0726  -12.3641   15.2267 C   0  0  0  0  0  0  0  0  0  0  0  0
   -9.0420  -11.9202   14.3077 C   0  0  0  0  0  0  0  0  0  0  0  0
   -8.7612  -10.9311   13.3294 C   0  0  0  0  0  0  0  0  0  0  0  0
   -7.4771  -10.3532   13.2421 C   0  0  0  0  0  0  0  0  0  0  0  0
   -7.0157   -9.4882   12.2565 N   0  0  0  0  0  0  0  0  0  0  0  0
   -5.7780   -9.1372   12.5103 C   0  0  0  0  0  0  0  0  0  0  0  0
   -5.0860   -9.8079   13.9235 S   0  0  0  0  0  0  0  0  0  0  0  0
   -6.5410  -10.7067   14.2154 C   0  0  0  0  0  0  0  0  0  0  0  0
   -6.8249  -11.6888   15.2129 C   0  0  0  0  0  0  0  0  0  0  0  0
   -7.7239  -15.9137   20.6407 C   0  0  0  0  0  0  0  0  0  0  0  0
   -7.7298  -16.6843   21.8253 N   0  0  0  0  0  0  0  0  0  0  0  0
   -6.8833  -17.8155   22.0621 C   0  0  0  0  0  0  0  0  0  0  0  0
   -5.9913  -18.1491   21.1098 C   0  0  0  0  0  0  0  0  0  0  0  0
   -6.2496  -17.2739   19.7011 S   0  0  0  0  0  0  0  0  0  0  0  0
  -13.1119  -16.2142   23.5736 H   0  0  0  0  0  0  0  0  0  0  0  0
  -11.4397  -16.3464   23.5480 H   0  0  0  0  0  0  0  0  0  0  0  0
  -11.9829  -14.8816   23.4064 H   0  0  0  0  0  0  0  0  0  0  0  0
  -12.2210  -15.5624   19.6373 H   0  0  0  0  0  0  0  0  0  0  0  0
  -11.5255  -14.8384   21.0971 H   0  0  0  0  0  0  0  0  0  0  0  0
   -8.9930  -14.2589   19.6817 H   0  0  0  0  0  0  0  0  0  0  0  0
   -7.2973  -14.1972   16.0750 H   0  0  0  0  0  0  0  0  0  0  0  0
   -8.9266  -14.3430   15.4237 H   0  0  0  0  0  0  0  0  0  0  0  0
  -10.0233  -12.3950   14.2866 H   0  0  0  0  0  0  0  0  0  0  0  0
   -9.5156  -10.6575   12.5970 H   0  0  0  0  0  0  0  0  0  0  0  0
   -5.2259   -8.4621   11.8704 H   0  0  0  0  0  0  0  0  0  0  0  0
   -6.0377  -11.9845   15.9030 H   0  0  0  0  0  0  0  0  0  0  0  0
   -6.9253  -18.3466   22.9979 H   0  0  0  0  0  0  0  0  0  0  0  0
   -5.2518  -18.9344   21.1486 H   0  0  0  0  0  0  0  0  0  0  0  0
  1  2  1  0
  2  3  1  0
  3  4  1  0
  4  5  1  0
  5  6  1  0
  6  7  2  0
  6  8  1  0
  8  9  1  0
  9 10  2  0
 10 11  1  0
 11 12  2  0
 12 13  1  0
 13 14  2  0
 14 15  1  0
 15 16  1  0
 16 17  2  0
  4 18  1  0
 18 19  2  0
 19 20  1  0
 20 21  2  0
 21 22  1  0
 17  9  1  0
 22 18  1  0
 16 12  1  0
  1 23  1  0
  1 24  1  0
  1 25  1  0
  3 26  1  0
  3 27  1  0
  4 28  1  0
  8 29  1  0
  8 30  1  0
 10 31  1  0
 11 32  1  0
 14 33  1  0
 17 34  1  0
 20 35  1  0
 21 36  1  0
M  END
>  <Energy>  (1186) 
483.09762246223983

>  <compound_id>  (1186) 
52436

>  <target_id>  (1186) 
1

>  <reference_id>  (1186) 
69

>  <inspiration_ids>  (1186) 
[69, 82]

>  <energy_score>  (1186) 
283.02572632593836

>  <distance_score>  (1186) 
13.595017957438532

>  <path>  (1186) 
/opt/xchem-fragalysis-2/maxwin/BulkDock/SCRATCH/511020/C52436-P69/C52436-P69.minimised.mol

>  <scratch_subdir>  (1186) 
/opt/xchem-fragalysis-2/maxwin/BulkDock/SCRATCH/511020/C52436-P69

>  <fragmenstein_runtime>  (1186) 
16.188273191452026

>  <fragmenstein_outcome>  (1186) 
too moved

>  <fragmenstein_mode>  (1186) 
expansion

>  <fragmenstein_error>  (1186) 


$$$$
C52436-P82
     RDKit          3D

 36 38  0  0  0  0  0  0  0  0999 V2000
  -15.2546  -16.5454   24.8729 C   0  0  0  0  0  0  0  0  0  0  0  0
  -13.9182  -16.0688   24.6174 O   0  0  0  0  0  0  0  0  0  0  0  0
  -13.4919  -16.4243   23.3117 C   0  0  0  0  0  0  0  0  0  0  0  0
  -11.8638  -15.9347   22.5971 C   0  0  0  0  0  0  0  0  0  0  0  0
  -11.7309  -15.2647   20.6617 O   0  0  0  0  0  0  0  0  0  0  0  0
  -10.4384  -14.8292   19.2722 C   0  0  0  0  0  0  0  0  0  0  0  0
   -9.7770  -15.7144   18.7614 O   0  0  0  0  0  0  0  0  0  0  0  0
   -9.8947  -13.2637   18.6651 C   0  0  0  0  0  0  0  0  0  0  0  0
   -9.2124  -12.8478   17.2310 C   0  0  0  0  0  0  0  0  0  0  0  0
   -8.6983  -13.7017   16.2647 C   0  0  0  0  0  0  0  0  0  0  0  0
   -8.1599  -13.2056   15.0393 C   0  0  0  0  0  0  0  0  0  0  0  0
   -8.0716  -11.8215   14.7551 C   0  0  0  0  0  0  0  0  0  0  0  0
   -7.5511  -11.2317   13.6046 N   0  0  0  0  0  0  0  0  0  0  0  0
   -7.6044   -9.9247   13.7189 C   0  0  0  0  0  0  0  0  0  0  0  0
   -8.2735   -9.3220   15.1804 S   0  0  0  0  0  0  0  0  0  0  0  0
   -8.5356  -10.9426   15.7332 C   0  0  0  0  0  0  0  0  0  0  0  0
   -9.1009  -11.4331   16.9489 C   0  0  0  0  0  0  0  0  0  0  0  0
  -10.7517  -17.1083   23.8805 C   0  0  0  0  0  0  0  0  0  0  0  0
  -10.4117  -17.4323   25.1366 N   0  0  0  0  0  0  0  0  0  0  0  0
  -10.5641  -18.9806   25.2940 C   0  0  0  0  0  0  0  0  0  0  0  0
  -10.5512  -19.8851   24.2783 C   0  0  0  0  0  0  0  0  0  0  0  0
   -9.6517  -19.0542   23.1699 S   0  0  0  0  0  0  0  0  0  0  0  0
  -15.2956  -17.6368   24.7985 H   0  0  0  0  0  0  0  0  0  0  0  0
  -15.5406  -16.2532   25.8848 H   0  0  0  0  0  0  0  0  0  0  0  0
  -15.9685  -16.1047   24.1702 H   0  0  0  0  0  0  0  0  0  0  0  0
  -13.5675  -17.5003   23.3983 H   0  0  0  0  0  0  0  0  0  0  0  0
  -14.2579  -16.1784   22.5602 H   0  0  0  0  0  0  0  0  0  0  0  0
  -12.4800  -16.4977   21.9243 H   0  0  0  0  0  0  0  0  0  0  0  0
   -9.0246  -13.1108   19.2987 H   0  0  0  0  0  0  0  0  0  0  0  0
  -10.5842  -12.4458   18.6356 H   0  0  0  0  0  0  0  0  0  0  0  0
   -8.6958  -14.7781   16.4322 H   0  0  0  0  0  0  0  0  0  0  0  0
   -7.7822  -13.9118   14.3037 H   0  0  0  0  0  0  0  0  0  0  0  0
   -7.2444   -9.2669   12.9393 H   0  0  0  0  0  0  0  0  0  0  0  0
   -9.4556  -10.7139   17.6846 H   0  0  0  0  0  0  0  0  0  0  0  0
  -11.1623  -19.3988   26.0490 H   0  0  0  0  0  0  0  0  0  0  0  0
  -10.9801  -20.8700   24.1701 H   0  0  0  0  0  0  0  0  0  0  0  0
  1  2  1  0
  2  3  1  0
  3  4  1  0
  4  5  1  0
  5  6  1  0
  6  7  2  0
  6  8  1  0
  8  9  1  0
  9 10  2  0
 10 11  1  0
 11 12  2  0
 12 13  1  0
 13 14  2  0
 14 15  1  0
 15 16  1  0
 16 17  2  0
  4 18  1  0
 18 19  2  0
 19 20  1  0
 20 21  2  0
 21 22  1  0
 17  9  1  0
 22 18  1  0
 16 12  1  0
  1 23  1  0
  1 24  1  0
  1 25  1  0
  3 26  1  0
  3 27  1  0
  4 28  1  0
  8 29  1  0
  8 30  1  0
 10 31  1  0
 11 32  1  0
 14 33  1  0
 17 34  1  0
 20 35  1  0
 21 36  1  0
M  END
>  <Energy>  (1187) 
694.01087850727197

>  <compound_id>  (1187) 
52436

>  <target_id>  (1187) 
1

>  <reference_id>  (1187) 
82

>  <inspiration_ids>  (1187) 
[69, 82]

>  <energy_score>  (1187) 
493.9389823709631

>  <distance_score>  (1187) 
13.320483808790188

>  <path>  (1187) 
/opt/xchem-fragalysis-2/maxwin/BulkDock/SCRATCH/511020/C52436-P82/C52436-P82.minimised.mol

>  <scratch_subdir>  (1187) 
/opt/xchem-fragalysis-2/maxwin/BulkDock/SCRATCH/511020/C52436-P82

>  <fragmenstein_runtime>  (1187) 
15.813628911972046

>  <fragmenstein_outcome>  (1187) 
too moved

>  <fragmenstein_mode>  (1187) 
expansion

>  <fragmenstein_error>  (1187) 


$$$$
C11039-P69
     RDKit          3D

 49 52  0  0  0  0  0  0  0  0999 V2000
   -9.4761  -13.9489   14.2146 O   0  0  0  0  0  0  0  0  0  0  0  0
   -9.2030  -12.7889   14.2159 C   0  0  0  0  0  0  0  0  0  0  0  0
   -8.9132  -12.0560   15.6236 C   0  0  0  0  0  0  0  0  0  0  0  0
   -8.9760  -12.3886   17.6771 C   0  0  0  0  0  0  0  0  0  0  0  0
   -8.2174  -13.3413   18.9784 C   0  0  0  0  0  0  0  0  0  0  0  0
   -7.2495  -12.7459   19.3802 O   0  0  0  0  0  0  0  0  0  0  0  0
   -8.6382  -15.0664   19.5832 N   0  0  0  0  0  0  0  0  0  0  0  0
   -7.7509  -16.1418   21.0140 C   0  0  0  0  0  0  0  0  0  0  0  0
   -6.8685  -17.7773   21.2066 C   0  0  0  0  0  0  0  0  0  0  0  0
   -6.3245  -18.3249   19.9935 N   0  0  0  0  0  0  0  0  0  0  0  0
   -6.2036  -19.6998   19.7588 C   0  0  0  0  0  0  0  0  0  0  0  0
   -4.9462  -20.2916   19.8101 C   0  0  0  0  0  0  0  0  0  0  0  0
   -4.7590  -21.5904   19.3275 C   0  0  0  0  0  0  0  0  0  0  0  0
   -5.8288  -22.2795   18.7669 C   0  0  0  0  0  0  0  0  0  0  0  0
   -7.0530  -21.6426   18.7350 C   0  0  0  0  0  0  0  0  0  0  0  0
   -7.2492  -20.3864   19.2102 N   0  0  0  0  0  0  0  0  0  0  0  0
   -6.6433  -17.6766   18.7483 C   0  0  0  0  0  0  0  0  0  0  0  0
   -7.8682  -16.3549   18.5014 C   0  0  0  0  0  0  0  0  0  0  0  0
   -9.1705  -11.8107   13.1185 N   0  0  0  0  0  0  0  0  0  0  0  0
   -9.5365  -11.9273   11.7951 C   0  0  0  0  0  0  0  0  0  0  0  0
   -9.9433  -12.9227   11.0613 N   0  0  0  0  0  0  0  0  0  0  0  0
  -10.2270  -12.4946    9.7599 C   0  0  0  0  0  0  0  0  0  0  0  0
  -10.5890  -13.2938    8.6577 C   0  0  0  0  0  0  0  0  0  0  0  0
  -10.8171  -12.7126    7.4011 C   0  0  0  0  0  0  0  0  0  0  0  0
  -10.6689  -11.3501    7.2195 C   0  0  0  0  0  0  0  0  0  0  0  0
  -10.3012  -10.5564    8.2963 C   0  0  0  0  0  0  0  0  0  0  0  0
  -10.1252  -11.1296    9.5546 C   0  0  0  0  0  0  0  0  0  0  0  0
   -9.8199  -10.4030   11.0514 S   0  0  0  0  0  0  0  0  0  0  0  0
  -10.0405  -11.9002   15.5264 H   0  0  0  0  0  0  0  0  0  0  0  0
   -8.4592  -11.1146   15.3119 H   0  0  0  0  0  0  0  0  0  0  0  0
   -9.9119  -12.0021   18.1113 H   0  0  0  0  0  0  0  0  0  0  0  0
   -7.9897  -11.9046   17.6733 H   0  0  0  0  0  0  0  0  0  0  0  0
   -6.7322  -15.9030   20.8404 H   0  0  0  0  0  0  0  0  0  0  0  0
   -7.9178  -16.1681   22.0512 H   0  0  0  0  0  0  0  0  0  0  0  0
   -7.4528  -18.4573   21.8106 H   0  0  0  0  0  0  0  0  0  0  0  0
   -6.0266  -17.5839   21.8696 H   0  0  0  0  0  0  0  0  0  0  0  0
   -4.0960  -19.7273   20.1632 H   0  0  0  0  0  0  0  0  0  0  0  0
   -3.7744  -22.0455   19.3682 H   0  0  0  0  0  0  0  0  0  0  0  0
   -5.7119  -23.2824   18.3754 H   0  0  0  0  0  0  0  0  0  0  0  0
   -7.9337  -22.1199   18.3175 H   0  0  0  0  0  0  0  0  0  0  0  0
   -5.6201  -17.3051   18.5557 H   0  0  0  0  0  0  0  0  0  0  0  0
   -7.0576  -18.3969   18.0720 H   0  0  0  0  0  0  0  0  0  0  0  0
   -7.6994  -15.9606   17.5069 H   0  0  0  0  0  0  0  0  0  0  0  0
   -7.2478  -16.4183   19.3092 H   0  0  0  0  0  0  0  0  0  0  0  0
   -8.9749  -10.8956   13.4951 H   0  0  0  0  0  0  0  0  0  0  0  0
  -10.6871  -14.3670    8.7919 H   0  0  0  0  0  0  0  0  0  0  0  0
  -11.0967  -13.3456    6.5621 H   0  0  0  0  0  0  0  0  0  0  0  0
  -10.8180  -10.9050    6.2379 H   0  0  0  0  0  0  0  0  0  0  0  0
  -10.1077   -9.5175    8.1455 H   0  0  0  0  0  0  0  0  0  0  0  0
  1  2  2  0
  2  3  1  0
  3  4  1  0
  4  5  1  0
  5  6  2  0
  5  7  1  0
  7  8  1  0
  8  9  1  0
  9 10  1  0
 10 11  1  0
 11 12  2  0
 12 13  1  0
 13 14  2  0
 14 15  1  0
 15 16  2  0
 10 17  1  0
 17 18  1  0
  2 19  1  0
 19 20  1  0
 20 21  2  0
 21 22  1  0
 22 23  2  0
 23 24  1  0
 24 25  2  0
 25 26  1  0
 26 27  2  0
 27 28  1  0
 18  7  1  0
 28 20  1  0
 16 11  1  0
 27 22  1  0
  3 29  1  0
  3 30  1  0
  4 31  1  0
  4 32  1  0
  8 33  1  0
  8 34  1  0
  9 35  1  0
  9 36  1  0
 12 37  1  0
 13 38  1  0
 14 39  1  0
 15 40  1  0
 17 41  1  0
 17 42  1  0
 18 43  1  0
 18 44  1  0
 19 45  1  0
 23 46  1  0
 24 47  1  0
 25 48  1  0
 26 49  1  0
M  END
>  <Energy>  (1188) 
650.16706944048724

>  <compound_id>  (1188) 
11039

>  <target_id>  (1188) 
1

>  <reference_id>  (1188) 
69

>  <inspiration_ids>  (1188) 
[69, 82]

>  <energy_score>  (1188) 
551.1753600398207

>  <distance_score>  (1188) 
12.888768111660546

>  <path>  (1188) 
/opt/xchem-fragalysis-2/maxwin/BulkDock/SCRATCH/511020/C11039-P69/C11039-P69.minimised.mol

>  <scratch_subdir>  (1188) 
/opt/xchem-fragalysis-2/maxwin/BulkDock/SCRATCH/511020/C11039-P69

>  <fragmenstein_runtime>  (1188) 
56.452826738357544

>  <fragmenstein_outcome>  (1188) 
too moved

>  <fragmenstein_mode>  (1188) 
expansion

>  <fragmenstein_error>  (1188) 


$$$$
C11039-P82
     RDKit          3D

 49 52  0  0  0  0  0  0  0  0999 V2000
   -8.1539   -9.5307   14.4740 O   0  0  0  0  0  0  0  0  0  0  0  0
   -7.0687  -10.0079   14.7412 C   0  0  0  0  0  0  0  0  0  0  0  0
   -7.0288  -11.0127   16.6926 C   0  0  0  0  0  0  0  0  0  0  0  0
   -7.9440  -12.7335   17.6953 C   0  0  0  0  0  0  0  0  0  0  0  0
   -8.2062  -14.0989   19.3253 C   0  0  0  0  0  0  0  0  0  0  0  0
   -8.2472  -13.4986   20.3063 O   0  0  0  0  0  0  0  0  0  0  0  0
   -8.1660  -16.0808   19.7571 N   0  0  0  0  0  0  0  0  0  0  0  0
   -8.0384  -17.0540   21.4589 C   0  0  0  0  0  0  0  0  0  0  0  0
   -6.6551  -17.7698   22.7188 C   0  0  0  0  0  0  0  0  0  0  0  0
   -6.2611  -19.1555   23.2214 N   0  0  0  0  0  0  0  0  0  0  0  0
   -5.0313  -19.6893   24.6534 C   0  0  0  0  0  0  0  0  0  0  0  0
   -5.1473  -20.0981   26.0943 C   0  0  0  0  0  0  0  0  0  0  0  0
   -4.4129  -21.0377   26.9212 C   0  0  0  0  0  0  0  0  0  0  0  0
   -3.5166  -21.8612   26.3339 C   0  0  0  0  0  0  0  0  0  0  0  0
   -3.4119  -21.6557   24.9963 C   0  0  0  0  0  0  0  0  0  0  0  0
   -4.1055  -20.6921   24.2768 N   0  0  0  0  0  0  0  0  0  0  0  0
   -6.4417  -18.9920   21.2659 C   0  0  0  0  0  0  0  0  0  0  0  0
   -6.6309  -17.3243   20.0686 C   0  0  0  0  0  0  0  0  0  0  0  0
   -5.5434   -9.7125   13.5912 N   0  0  0  0  0  0  0  0  0  0  0  0
   -5.3320   -8.6528   12.0941 C   0  0  0  0  0  0  0  0  0  0  0  0
   -6.0430   -7.6457   11.4322 N   0  0  0  0  0  0  0  0  0  0  0  0
   -5.6606   -6.4282   10.4478 C   0  0  0  0  0  0  0  0  0  0  0  0
   -6.6308   -5.4167    9.2616 C   0  0  0  0  0  0  0  0  0  0  0  0
   -6.2463   -4.2985    7.9180 C   0  0  0  0  0  0  0  0  0  0  0  0
   -4.6880   -3.9994    7.8524 C   0  0  0  0  0  0  0  0  0  0  0  0
   -3.8429   -5.0958    9.0542 C   0  0  0  0  0  0  0  0  0  0  0  0
   -4.2329   -6.2461   10.3469 C   0  0  0  0  0  0  0  0  0  0  0  0
   -3.7411   -8.2697   10.7948 S   0  0  0  0  0  0  0  0  0  0  0  0
   -5.9395  -11.0120   16.9683 H   0  0  0  0  0  0  0  0  0  0  0  0
   -7.1997  -10.2089   17.3809 H   0  0  0  0  0  0  0  0  0  0  0  0
   -7.6475  -13.5034   17.0018 H   0  0  0  0  0  0  0  0  0  0  0  0
   -8.9808  -12.4470   17.7365 H   0  0  0  0  0  0  0  0  0  0  0  0
   -8.1891  -16.6178   22.3712 H   0  0  0  0  0  0  0  0  0  0  0  0
   -7.5173  -16.1773   21.3659 H   0  0  0  0  0  0  0  0  0  0  0  0
   -5.6879  -17.5654   22.2787 H   0  0  0  0  0  0  0  0  0  0  0  0
   -6.7687  -17.2138   23.5845 H   0  0  0  0  0  0  0  0  0  0  0  0
   -5.8643  -19.6419   26.6998 H   0  0  0  0  0  0  0  0  0  0  0  0
   -4.6413  -21.1076   27.9784 H   0  0  0  0  0  0  0  0  0  0  0  0
   -2.9611  -22.6193   26.8629 H   0  0  0  0  0  0  0  0  0  0  0  0
   -2.7595  -22.2701   24.3817 H   0  0  0  0  0  0  0  0  0  0  0  0
   -5.7042  -19.6164   20.7537 H   0  0  0  0  0  0  0  0  0  0  0  0
   -7.4141  -19.4277   21.1397 H   0  0  0  0  0  0  0  0  0  0  0  0
   -5.8661  -16.8133   20.5525 H   0  0  0  0  0  0  0  0  0  0  0  0
   -6.4020  -17.7283   19.0775 H   0  0  0  0  0  0  0  0  0  0  0  0
   -4.7645  -10.2557   13.9280 H   0  0  0  0  0  0  0  0  0  0  0  0
   -7.6249   -5.1454    9.5625 H   0  0  0  0  0  0  0  0  0  0  0  0
   -7.0227   -3.7895    7.3613 H   0  0  0  0  0  0  0  0  0  0  0  0
   -4.1769   -3.3818    7.1479 H   0  0  0  0  0  0  0  0  0  0  0  0
   -3.2579   -5.6920    8.3942 H   0  0  0  0  0  0  0  0  0  0  0  0
  1  2  2  0
  2  3  1  0
  3  4  1  0
  4  5  1  0
  5  6  2  0
  5  7  1  0
  7  8  1  0
  8  9  1  0
  9 10  1  0
 10 11  1  0
 11 12  2  0
 12 13  1  0
 13 14  2  0
 14 15  1  0
 15 16  2  0
 10 17  1  0
 17 18  1  0
  2 19  1  0
 19 20  1  0
 20 21  2  0
 21 22  1  0
 22 23  2  0
 23 24  1  0
 24 25  2  0
 25 26  1  0
 26 27  2  0
 27 28  1  0
 18  7  1  0
 28 20  1  0
 16 11  1  0
 27 22  1  0
  3 29  1  0
  3 30  1  0
  4 31  1  0
  4 32  1  0
  8 33  1  0
  8 34  1  0
  9 35  1  0
  9 36  1  0
 12 37  1  0
 13 38  1  0
 14 39  1  0
 15 40  1  0
 17 41  1  0
 17 42  1  0
 18 43  1  0
 18 44  1  0
 19 45  1  0
 23 46  1  0
 24 47  1  0
 25 48  1  0
 26 49  1  0
M  END
>  <Energy>  (1189) 
2020.2036173560753

>  <compound_id>  (1189) 
11039

>  <target_id>  (1189) 
1

>  <reference_id>  (1189) 
82

>  <inspiration_ids>  (1189) 
[69, 82]

>  <energy_score>  (1189) 
1921.211907955419

>  <distance_score>  (1189) 
8.190807066237973

>  <path>  (1189) 
/opt/xchem-fragalysis-2/maxwin/BulkDock/SCRATCH/511020/C11039-P82/C11039-P82.minimised.mol

>  <scratch_subdir>  (1189) 
/opt/xchem-fragalysis-2/maxwin/BulkDock/SCRATCH/511020/C11039-P82

>  <fragmenstein_runtime>  (1189) 
30.36649203300476

>  <fragmenstein_outcome>  (1189) 
too moved

>  <fragmenstein_mode>  (1189) 
expansion

>  <fragmenstein_error>  (1189) 


$$$$
C11040-P69
     RDKit          3D

 40 43  0  0  0  0  0  0  0  0999 V2000
   -5.6740  -12.2351   18.5942 O   0  0  0  0  0  0  0  0  0  0  0  0
   -7.0846  -12.0594   18.3920 S   0  0  0  0  0  0  0  0  0  0  0  0
   -7.9447  -12.6461   17.4150 O   0  0  0  0  0  0  0  0  0  0  0  0
   -6.5076  -10.3163   16.7265 C   0  0  0  0  0  0  0  0  0  0  0  0
   -5.1490   -9.7931   16.5146 C   0  0  0  0  0  0  0  0  0  0  0  0
   -4.5499   -8.6465   15.8470 C   0  0  0  0  0  0  0  0  0  0  0  0
   -5.1660   -7.9797   14.8352 C   0  0  0  0  0  0  0  0  0  0  0  0
   -6.2134   -8.7564   14.4117 C   0  0  0  0  0  0  0  0  0  0  0  0
   -6.5025   -9.1291   12.7372 S   0  0  0  0  0  0  0  0  0  0  0  0
   -7.9628   -9.8785   13.1781 C   0  0  0  0  0  0  0  0  0  0  0  0
   -8.1705   -9.9995   14.4686 N   0  0  0  0  0  0  0  0  0  0  0  0
   -7.0002   -9.5934   15.2468 C   0  0  0  0  0  0  0  0  0  0  0  0
   -7.7760  -13.5093   20.1816 N   0  0  0  0  0  0  0  0  0  0  0  0
   -8.8925  -13.7868   19.4248 C   0  0  0  0  0  0  0  0  0  0  0  0
   -8.6441  -15.4943   18.6877 C   0  0  0  0  0  0  0  0  0  0  0  0
   -7.6893  -16.6472   18.3908 N   0  0  0  0  0  0  0  0  0  0  0  0
   -6.7200  -16.8574   19.7676 C   0  0  0  0  0  0  0  0  0  0  0  0
   -7.6113  -15.5971   20.9511 C   0  0  0  0  0  0  0  0  0  0  0  0
   -7.8727  -16.6600   22.6327 C   0  0  0  0  0  0  0  0  0  0  0  0
   -7.2054  -17.8840   22.4508 C   0  0  0  0  0  0  0  0  0  0  0  0
   -7.9711  -18.8776   23.0363 C   0  0  0  0  0  0  0  0  0  0  0  0
   -9.6223  -18.6180   23.8004 C   0  0  0  0  0  0  0  0  0  0  0  0
  -10.2854  -17.0734   24.3191 C   0  0  0  0  0  0  0  0  0  0  0  0
   -9.2822  -16.2901   23.8920 N   0  0  0  0  0  0  0  0  0  0  0  0
   -4.3293  -10.3648   16.9616 H   0  0  0  0  0  0  0  0  0  0  0  0
   -3.5008   -8.4296   16.0587 H   0  0  0  0  0  0  0  0  0  0  0  0
   -4.6218   -7.2932   14.1980 H   0  0  0  0  0  0  0  0  0  0  0  0
   -8.6716  -10.2385   12.4434 H   0  0  0  0  0  0  0  0  0  0  0  0
   -9.1116  -12.8697   18.8794 H   0  0  0  0  0  0  0  0  0  0  0  0
   -9.9284  -13.6940   19.6324 H   0  0  0  0  0  0  0  0  0  0  0  0
   -9.5108  -15.6368   19.3182 H   0  0  0  0  0  0  0  0  0  0  0  0
   -9.1875  -15.8354   17.8401 H   0  0  0  0  0  0  0  0  0  0  0  0
   -7.2554  -16.4894   17.4894 H   0  0  0  0  0  0  0  0  0  0  0  0
   -5.6588  -16.9104   19.5218 H   0  0  0  0  0  0  0  0  0  0  0  0
   -6.7853  -17.9251   20.0452 H   0  0  0  0  0  0  0  0  0  0  0  0
   -8.5586  -15.8051   20.6282 H   0  0  0  0  0  0  0  0  0  0  0  0
   -6.3243  -18.0855   21.8823 H   0  0  0  0  0  0  0  0  0  0  0  0
   -7.6576  -19.8814   22.7742 H   0  0  0  0  0  0  0  0  0  0  0  0
  -10.2369  -19.5582   23.8770 H   0  0  0  0  0  0  0  0  0  0  0  0
  -11.2354  -16.8016   24.7791 H   0  0  0  0  0  0  0  0  0  0  0  0
  1  2  2  0
  2  3  2  0
  2  4  1  0
  4  5  2  0
  5  6  1  0
  6  7  2  0
  7  8  1  0
  8  9  1  0
  9 10  1  0
 10 11  2  0
 11 12  1  0
  2 13  1  0
 13 14  1  0
 14 15  1  0
 15 16  1  0
 16 17  1  0
 17 18  1  0
 18 19  1  0
 19 20  2  0
 20 21  1  0
 21 22  2  0
 22 23  1  0
 23 24  2  0
 12  4  1  0
 18 13  1  0
 24 19  1  0
 12  8  2  0
  5 25  1  0
  6 26  1  0
  7 27  1  0
 10 28  1  0
 14 29  1  0
 14 30  1  0
 15 31  1  0
 15 32  1  0
 16 33  1  0
 17 34  1  0
 17 35  1  0
 18 36  1  0
 20 37  1  0
 21 38  1  0
 22 39  1  0
 23 40  1  0
M  END
>  <Energy>  (1190) 
1249.4951969120455

>  <compound_id>  (1190) 
11040

>  <target_id>  (1190) 
1

>  <reference_id>  (1190) 
69

>  <inspiration_ids>  (1190) 
[69, 82]

>  <energy_score>  (1190) 
1059.1018654372924

>  <distance_score>  (1190) 
12.710421561808081

>  <path>  (1190) 
/opt/xchem-fragalysis-2/maxwin/BulkDock/SCRATCH/511020/C11040-P69/C11040-P69.minimised.mol

>  <scratch_subdir>  (1190) 
/opt/xchem-fragalysis-2/maxwin/BulkDock/SCRATCH/511020/C11040-P69

>  <fragmenstein_runtime>  (1190) 
20.53947925567627

>  <fragmenstein_outcome>  (1190) 
too moved

>  <fragmenstein_mode>  (1190) 
expansion

>  <fragmenstein_error>  (1190) 


$$$$
C11040-P82
     RDKit          3D

 40 43  0  0  0  0  0  0  0  0999 V2000
   -8.2552  -12.0804   16.6799 O   0  0  0  0  0  0  0  0  0  0  0  0
   -7.3401  -11.8996   17.8099 S   0  0  0  0  0  0  0  0  0  0  0  0
   -7.7892  -11.2107   18.9439 O   0  0  0  0  0  0  0  0  0  0  0  0
   -6.3162  -10.1860   16.5466 C   0  0  0  0  0  0  0  0  0  0  0  0
   -6.2601   -8.7827   16.9737 C   0  0  0  0  0  0  0  0  0  0  0  0
   -5.3801   -7.7442   16.5526 C   0  0  0  0  0  0  0  0  0  0  0  0
   -4.7116   -7.8558   15.3666 C   0  0  0  0  0  0  0  0  0  0  0  0
   -5.4305   -8.7013   14.5471 C   0  0  0  0  0  0  0  0  0  0  0  0
   -5.4200   -8.6651   12.8156 S   0  0  0  0  0  0  0  0  0  0  0  0
   -6.8952   -9.5046   12.8256 C   0  0  0  0  0  0  0  0  0  0  0  0
   -7.3182   -9.8969   14.0048 N   0  0  0  0  0  0  0  0  0  0  0  0
   -6.3646   -9.6517   15.0615 C   0  0  0  0  0  0  0  0  0  0  0  0
   -7.8084  -14.0075   17.6855 N   0  0  0  0  0  0  0  0  0  0  0  0
   -6.8175  -14.4242   16.5977 C   0  0  0  0  0  0  0  0  0  0  0  0
   -6.3882  -15.7883   16.4351 C   0  0  0  0  0  0  0  0  0  0  0  0
   -7.6421  -16.3465   16.3138 N   0  0  0  0  0  0  0  0  0  0  0  0
   -8.2843  -16.7552   17.4306 C   0  0  0  0  0  0  0  0  0  0  0  0
   -8.1378  -15.8310   18.5398 C   0  0  0  0  0  0  0  0  0  0  0  0
   -6.8798  -17.0042   19.5973 C   0  0  0  0  0  0  0  0  0  0  0  0
   -6.0398  -17.9927   19.0507 C   0  0  0  0  0  0  0  0  0  0  0  0
   -5.8564  -19.1896   19.6850 C   0  0  0  0  0  0  0  0  0  0  0  0
   -6.4058  -19.3147   20.9246 C   0  0  0  0  0  0  0  0  0  0  0  0
   -6.9283  -18.2496   21.5715 C   0  0  0  0  0  0  0  0  0  0  0  0
   -7.1415  -17.0971   20.9390 N   0  0  0  0  0  0  0  0  0  0  0  0
   -7.0080   -8.3625   17.6584 H   0  0  0  0  0  0  0  0  0  0  0  0
   -5.3103   -6.8285   17.1368 H   0  0  0  0  0  0  0  0  0  0  0  0
   -4.0418   -7.0933   14.9905 H   0  0  0  0  0  0  0  0  0  0  0  0
   -7.4576   -9.7021   11.9215 H   0  0  0  0  0  0  0  0  0  0  0  0
   -7.2663  -14.3954   15.6421 H   0  0  0  0  0  0  0  0  0  0  0  0
   -5.9573  -13.8290   16.8815 H   0  0  0  0  0  0  0  0  0  0  0  0
   -5.9618  -16.0756   15.4913 H   0  0  0  0  0  0  0  0  0  0  0  0
   -5.4704  -16.0733   16.9906 H   0  0  0  0  0  0  0  0  0  0  0  0
   -8.0412  -16.1807   15.4085 H   0  0  0  0  0  0  0  0  0  0  0  0
   -9.2654  -16.4553   17.3945 H   0  0  0  0  0  0  0  0  0  0  0  0
   -8.1729  -17.8210   17.4671 H   0  0  0  0  0  0  0  0  0  0  0  0
   -8.9828  -15.6109   19.2019 H   0  0  0  0  0  0  0  0  0  0  0  0
   -5.3201  -17.7885   18.2794 H   0  0  0  0  0  0  0  0  0  0  0  0
   -5.2231  -19.9660   19.2730 H   0  0  0  0  0  0  0  0  0  0  0  0
   -6.2166  -20.1867   21.4933 H   0  0  0  0  0  0  0  0  0  0  0  0
   -7.1851  -18.3032   22.6090 H   0  0  0  0  0  0  0  0  0  0  0  0
  1  2  2  0
  2  3  2  0
  2  4  1  0
  4  5  2  0
  5  6  1  0
  6  7  2  0
  7  8  1  0
  8  9  1  0
  9 10  1  0
 10 11  2  0
 11 12  1  0
  2 13  1  0
 13 14  1  0
 14 15  1  0
 15 16  1  0
 16 17  1  0
 17 18  1  0
 18 19  1  0
 19 20  2  0
 20 21  1  0
 21 22  2  0
 22 23  1  0
 23 24  2  0
 12  4  1  0
 18 13  1  0
 24 19  1  0
 12  8  2  0
  5 25  1  0
  6 26  1  0
  7 27  1  0
 10 28  1  0
 14 29  1  0
 14 30  1  0
 15 31  1  0
 15 32  1  0
 16 33  1  0
 17 34  1  0
 17 35  1  0
 18 36  1  0
 20 37  1  0
 21 38  1  0
 22 39  1  0
 23 40  1  0
M  END
>  <Energy>  (1191) 
681.77572283008124

>  <compound_id>  (1191) 
11040

>  <target_id>  (1191) 
1

>  <reference_id>  (1191) 
82

>  <inspiration_ids>  (1191) 
[69, 82]

>  <energy_score>  (1191) 
491.382391355334

>  <distance_score>  (1191) 
13.532632862902984

>  <path>  (1191) 
/opt/xchem-fragalysis-2/maxwin/BulkDock/SCRATCH/511020/C11040-P82/C11040-P82.minimised.mol

>  <scratch_subdir>  (1191) 
/opt/xchem-fragalysis-2/maxwin/BulkDock/SCRATCH/511020/C11040-P82

>  <fragmenstein_runtime>  (1191) 
22.34351420402527

>  <fragmenstein_outcome>  (1191) 
too moved

>  <fragmenstein_mode>  (1191) 
expansion

>  <fragmenstein_error>  (1191) 


$$$$
C11041-P69
     RDKit          3D

 44 47  0  0  0  0  0  0  0  0999 V2000
   -8.3409  -11.9492   13.0210 O   0  0  0  0  0  0  0  0  0  0  0  0
   -8.2106  -11.2428   14.0074 C   0  0  0  0  0  0  0  0  0  0  0  0
   -8.6466  -12.1284   15.6420 C   0  0  0  0  0  0  0  0  0  0  0  0
   -7.6924  -13.2598   17.0048 N   0  0  0  0  0  0  0  0  0  0  0  0
   -8.2215  -13.2932   18.6917 C   0  0  0  0  0  0  0  0  0  0  0  0
   -8.6737  -15.1337   19.2274 C   0  0  0  0  0  0  0  0  0  0  0  0
   -7.6965  -16.4957   18.6393 N   0  0  0  0  0  0  0  0  0  0  0  0
   -6.6266  -17.2129   19.5144 C   0  0  0  0  0  0  0  0  0  0  0  0
   -5.9480  -18.3747   19.3089 C   0  0  0  0  0  0  0  0  0  0  0  0
   -5.8018  -19.2276   20.4055 C   0  0  0  0  0  0  0  0  0  0  0  0
   -6.4157  -18.9612   21.6158 C   0  0  0  0  0  0  0  0  0  0  0  0
   -6.7666  -17.7048   21.7944 C   0  0  0  0  0  0  0  0  0  0  0  0
   -6.6623  -16.8283   20.8067 N   0  0  0  0  0  0  0  0  0  0  0  0
   -7.7943  -16.3550   17.2694 C   0  0  0  0  0  0  0  0  0  0  0  0
   -7.0119  -15.0054   16.6601 C   0  0  0  0  0  0  0  0  0  0  0  0
   -7.6119   -9.7241   14.1493 N   0  0  0  0  0  0  0  0  0  0  0  0
   -6.8572   -8.6933   12.9784 C   0  0  0  0  0  0  0  0  0  0  0  0
   -6.4466   -7.4559   12.6827 N   0  0  0  0  0  0  0  0  0  0  0  0
   -5.1996   -7.3021   11.9490 C   0  0  0  0  0  0  0  0  0  0  0  0
   -4.8662   -6.4952   10.9258 C   0  0  0  0  0  0  0  0  0  0  0  0
   -3.5703   -6.2904   10.4380 C   0  0  0  0  0  0  0  0  0  0  0  0
   -2.4927   -6.9213   10.9897 C   0  0  0  0  0  0  0  0  0  0  0  0
   -2.7830   -7.9077   11.8857 C   0  0  0  0  0  0  0  0  0  0  0  0
   -4.1429   -8.0910   12.1948 C   0  0  0  0  0  0  0  0  0  0  0  0
   -4.9196   -9.4210   12.6583 S   0  0  0  0  0  0  0  0  0  0  0  0
   -8.1324  -11.4445   16.2061 H   0  0  0  0  0  0  0  0  0  0  0  0
   -9.7419  -12.1695   15.4641 H   0  0  0  0  0  0  0  0  0  0  0  0
   -9.1171  -12.6578   18.7703 H   0  0  0  0  0  0  0  0  0  0  0  0
   -7.4769  -12.7914   19.3113 H   0  0  0  0  0  0  0  0  0  0  0  0
   -9.7007  -15.3230   19.1195 H   0  0  0  0  0  0  0  0  0  0  0  0
   -8.5378  -15.3204   20.2700 H   0  0  0  0  0  0  0  0  0  0  0  0
   -5.4483  -18.6465   18.4067 H   0  0  0  0  0  0  0  0  0  0  0  0
   -5.1700  -20.0980   20.3206 H   0  0  0  0  0  0  0  0  0  0  0  0
   -6.4389  -19.5449   22.5164 H   0  0  0  0  0  0  0  0  0  0  0  0
   -7.1025  -17.3356   22.7359 H   0  0  0  0  0  0  0  0  0  0  0  0
   -8.8111  -16.1566   17.3109 H   0  0  0  0  0  0  0  0  0  0  0  0
   -7.9356  -17.2826   16.7768 H   0  0  0  0  0  0  0  0  0  0  0  0
   -7.2610  -15.1812   15.6038 H   0  0  0  0  0  0  0  0  0  0  0  0
   -6.0510  -15.3009   16.9794 H   0  0  0  0  0  0  0  0  0  0  0  0
   -7.7218   -9.4102   15.0762 H   0  0  0  0  0  0  0  0  0  0  0  0
   -5.7156   -6.2320   10.3391 H   0  0  0  0  0  0  0  0  0  0  0  0
   -3.4663   -5.6870    9.5458 H   0  0  0  0  0  0  0  0  0  0  0  0
   -1.4890   -6.7959   10.5981 H   0  0  0  0  0  0  0  0  0  0  0  0
   -2.0277   -8.6226   12.1958 H   0  0  0  0  0  0  0  0  0  0  0  0
  1  2  2  0
  2  3  1  0
  3  4  1  0
  4  5  1  0
  5  6  1  0
  6  7  1  0
  7  8  1  0
  8  9  2  0
  9 10  1  0
 10 11  2  0
 11 12  1  0
 12 13  2  0
  7 14  1  0
 14 15  1  0
  2 16  1  0
 16 17  1  0
 17 18  2  0
 18 19  1  0
 19 20  2  0
 20 21  1  0
 21 22  2  0
 22 23  1  0
 23 24  2  0
 24 25  1  0
 15  4  1  0
 25 17  1  0
 13  8  1  0
 24 19  1  0
  3 26  1  0
  3 27  1  0
  5 28  1  0
  5 29  1  0
  6 30  1  0
  6 31  1  0
  9 32  1  0
 10 33  1  0
 11 34  1  0
 12 35  1  0
 14 36  1  0
 14 37  1  0
 15 38  1  0
 15 39  1  0
 16 40  1  0
 20 41  1  0
 21 42  1  0
 22 43  1  0
 23 44  1  0
M  END
>  <Energy>  (1192) 
662.51114154559241

>  <compound_id>  (1192) 
11041

>  <target_id>  (1192) 
1

>  <reference_id>  (1192) 
69

>  <inspiration_ids>  (1192) 
[69, 82]

>  <energy_score>  (1192) 
501.9289743032805

>  <distance_score>  (1192) 
11.506822709218183

>  <path>  (1192) 
/opt/xchem-fragalysis-2/maxwin/BulkDock/SCRATCH/511020/C11041-P69/C11041-P69.minimised.mol

>  <scratch_subdir>  (1192) 
/opt/xchem-fragalysis-2/maxwin/BulkDock/SCRATCH/511020/C11041-P69

>  <fragmenstein_runtime>  (1192) 
49.4342827796936

>  <fragmenstein_outcome>  (1192) 
too moved

>  <fragmenstein_mode>  (1192) 
expansion

>  <fragmenstein_error>  (1192) 


$$$$
C11041-P82
     RDKit          3D

 44 47  0  0  0  0  0  0  0  0999 V2000
   -6.8426   -9.0053   16.5633 O   0  0  0  0  0  0  0  0  0  0  0  0
   -6.4664  -10.1024   16.1510 C   0  0  0  0  0  0  0  0  0  0  0  0
   -6.8184  -11.4633   17.5393 C   0  0  0  0  0  0  0  0  0  0  0  0
   -7.7289  -13.0110   17.5694 N   0  0  0  0  0  0  0  0  0  0  0  0
   -8.2969  -13.5611   18.9402 C   0  0  0  0  0  0  0  0  0  0  0  0
   -8.7331  -15.4432   19.0084 C   0  0  0  0  0  0  0  0  0  0  0  0
   -7.8316  -16.6521   18.1007 N   0  0  0  0  0  0  0  0  0  0  0  0
   -6.6762  -17.5776   19.0169 C   0  0  0  0  0  0  0  0  0  0  0  0
   -6.7329  -17.7130   20.4271 C   0  0  0  0  0  0  0  0  0  0  0  0
   -6.4343  -18.9312   20.9546 C   0  0  0  0  0  0  0  0  0  0  0  0
   -5.5815  -19.7062   20.2172 C   0  0  0  0  0  0  0  0  0  0  0  0
   -5.0304  -19.1666   19.1054 C   0  0  0  0  0  0  0  0  0  0  0  0
   -5.5862  -18.1311   18.5043 N   0  0  0  0  0  0  0  0  0  0  0  0
   -7.1630  -15.9676   16.7394 C   0  0  0  0  0  0  0  0  0  0  0  0
   -6.9919  -14.3752   16.7415 C   0  0  0  0  0  0  0  0  0  0  0  0
   -5.7205  -10.3432   14.3983 N   0  0  0  0  0  0  0  0  0  0  0  0
   -5.3366   -9.2574   13.2188 C   0  0  0  0  0  0  0  0  0  0  0  0
   -5.9899   -8.1623   12.9258 N   0  0  0  0  0  0  0  0  0  0  0  0
   -5.2297   -7.6460   11.9674 C   0  0  0  0  0  0  0  0  0  0  0  0
   -5.6368   -7.5621   10.7132 C   0  0  0  0  0  0  0  0  0  0  0  0
   -5.1604   -6.3550   10.6300 C   0  0  0  0  0  0  0  0  0  0  0  0
   -3.7745   -6.1165   10.6499 C   0  0  0  0  0  0  0  0  0  0  0  0
   -2.9674   -6.9107   11.4150 C   0  0  0  0  0  0  0  0  0  0  0  0
   -3.8289   -7.8139   11.9775 C   0  0  0  0  0  0  0  0  0  0  0  0
   -4.0647   -9.4536   11.5784 S   0  0  0  0  0  0  0  0  0  0  0  0
   -7.3282  -11.0641   18.4001 H   0  0  0  0  0  0  0  0  0  0  0  0
   -7.6901  -11.4926   16.9320 H   0  0  0  0  0  0  0  0  0  0  0  0
   -9.2192  -13.0297   19.1421 H   0  0  0  0  0  0  0  0  0  0  0  0
   -7.5618  -13.3128   19.6848 H   0  0  0  0  0  0  0  0  0  0  0  0
   -9.7642  -15.5773   18.8585 H   0  0  0  0  0  0  0  0  0  0  0  0
   -8.6193  -15.7565   20.0301 H   0  0  0  0  0  0  0  0  0  0  0  0
   -7.2987  -17.0697   21.0841 H   0  0  0  0  0  0  0  0  0  0  0  0
   -6.7672  -19.1954   21.9496 H   0  0  0  0  0  0  0  0  0  0  0  0
   -5.1651  -20.6304   20.5776 H   0  0  0  0  0  0  0  0  0  0  0  0
   -4.1593  -19.5867   18.6303 H   0  0  0  0  0  0  0  0  0  0  0  0
   -7.8224  -16.2711   15.9415 H   0  0  0  0  0  0  0  0  0  0  0  0
   -6.0957  -16.1164   16.5693 H   0  0  0  0  0  0  0  0  0  0  0  0
   -7.2520  -14.3946   15.7138 H   0  0  0  0  0  0  0  0  0  0  0  0
   -7.6793  -14.6929   17.4423 H   0  0  0  0  0  0  0  0  0  0  0  0
   -5.4261  -11.2238   14.3039 H   0  0  0  0  0  0  0  0  0  0  0  0
   -6.5022   -7.8837   10.1585 H   0  0  0  0  0  0  0  0  0  0  0  0
   -5.9285   -5.9579    9.9352 H   0  0  0  0  0  0  0  0  0  0  0  0
   -3.4022   -5.4722    9.8698 H   0  0  0  0  0  0  0  0  0  0  0  0
   -1.9127   -7.0600   11.2437 H   0  0  0  0  0  0  0  0  0  0  0  0
  1  2  2  0
  2  3  1  0
  3  4  1  0
  4  5  1  0
  5  6  1  0
  6  7  1  0
  7  8  1  0
  8  9  2  0
  9 10  1  0
 10 11  2  0
 11 12  1  0
 12 13  2  0
  7 14  1  0
 14 15  1  0
  2 16  1  0
 16 17  1  0
 17 18  2  0
 18 19  1  0
 19 20  2  0
 20 21  1  0
 21 22  2  0
 22 23  1  0
 23 24  2  0
 24 25  1  0
 15  4  1  0
 25 17  1  0
 13  8  1  0
 24 19  1  0
  3 26  1  0
  3 27  1  0
  5 28  1  0
  5 29  1  0
  6 30  1  0
  6 31  1  0
  9 32  1  0
 10 33  1  0
 11 34  1  0
 12 35  1  0
 14 36  1  0
 14 37  1  0
 15 38  1  0
 15 39  1  0
 16 40  1  0
 20 41  1  0
 21 42  1  0
 22 43  1  0
 23 44  1  0
M  END
>  <Energy>  (1193) 
821.4952432588567

>  <compound_id>  (1193) 
11041

>  <target_id>  (1193) 
1

>  <reference_id>  (1193) 
82

>  <inspiration_ids>  (1193) 
[69, 82]

>  <energy_score>  (1193) 
660.9130760165506

>  <distance_score>  (1193) 
11.309429371199824

>  <path>  (1193) 
/opt/xchem-fragalysis-2/maxwin/BulkDock/SCRATCH/511020/C11041-P82/C11041-P82.minimised.mol

>  <scratch_subdir>  (1193) 
/opt/xchem-fragalysis-2/maxwin/BulkDock/SCRATCH/511020/C11041-P82

>  <fragmenstein_runtime>  (1193) 
29.897457361221313

>  <fragmenstein_outcome>  (1193) 
too moved

>  <fragmenstein_mode>  (1193) 
expansion

>  <fragmenstein_error>  (1193) 


$$$$
C11042-P69
     RDKit          3D

 51 54  0  0  0  0  0  0  0  0999 V2000
   -2.6163  -11.4572   18.1433 C   0  0  0  0  0  0  0  0  0  0  0  0
   -3.4932  -10.8693   19.1869 C   0  0  0  0  0  0  0  0  0  0  0  0
   -4.7110  -11.9229   19.9396 N   0  0  0  0  0  0  0  0  0  0  0  0
   -6.4232  -12.5392   19.3365 C   0  0  0  0  0  0  0  0  0  0  0  0
   -7.0521  -12.2490   18.3425 O   0  0  0  0  0  0  0  0  0  0  0  0
   -6.9277  -13.9342   20.5736 N   0  0  0  0  0  0  0  0  0  0  0  0
   -6.4126  -16.0287   20.6087 C   0  0  0  0  0  0  0  0  0  0  0  0
   -6.4753  -17.9711   20.8422 C   0  0  0  0  0  0  0  0  0  0  0  0
   -7.0840  -18.3194   22.1073 N   0  0  0  0  0  0  0  0  0  0  0  0
   -7.7734  -19.8134   22.5844 C   0  0  0  0  0  0  0  0  0  0  0  0
   -7.1612  -20.8397   23.2538 C   0  0  0  0  0  0  0  0  0  0  0  0
   -7.8220  -22.5025   23.6146 C   0  0  0  0  0  0  0  0  0  0  0  0
   -9.1774  -22.9509   23.3229 C   0  0  0  0  0  0  0  0  0  0  0  0
   -9.8925  -21.8854   22.8544 C   0  0  0  0  0  0  0  0  0  0  0  0
   -9.2507  -20.6253   22.5795 N   0  0  0  0  0  0  0  0  0  0  0  0
   -7.8663  -16.7985   21.8751 C   0  0  0  0  0  0  0  0  0  0  0  0
   -8.3683  -15.2738   20.5251 C   0  0  0  0  0  0  0  0  0  0  0  0
   -2.5658   -9.3237   19.4627 C   0  0  0  0  0  0  0  0  0  0  0  0
   -1.9250   -9.2677   20.4869 O   0  0  0  0  0  0  0  0  0  0  0  0
   -2.8083   -8.2832   18.4041 N   0  0  0  0  0  0  0  0  0  0  0  0
   -2.4407   -6.9245   18.3445 C   0  0  0  0  0  0  0  0  0  0  0  0
   -1.3788   -6.5040   17.6756 N   0  0  0  0  0  0  0  0  0  0  0  0
   -1.6140   -5.2898   16.9923 C   0  0  0  0  0  0  0  0  0  0  0  0
   -0.7407   -4.6301   16.0979 C   0  0  0  0  0  0  0  0  0  0  0  0
   -1.1235   -3.4241   15.4915 C   0  0  0  0  0  0  0  0  0  0  0  0
   -2.3595   -2.8597   15.7735 C   0  0  0  0  0  0  0  0  0  0  0  0
   -3.2773   -3.5298   16.5853 C   0  0  0  0  0  0  0  0  0  0  0  0
   -2.8804   -4.7476   17.1725 C   0  0  0  0  0  0  0  0  0  0  0  0
   -3.7814   -5.8363   18.1332 S   0  0  0  0  0  0  0  0  0  0  0  0
   -1.5747  -11.2161   18.3340 H   0  0  0  0  0  0  0  0  0  0  0  0
   -2.6024  -12.5246   17.9790 H   0  0  0  0  0  0  0  0  0  0  0  0
   -2.9095  -10.8667   17.2960 H   0  0  0  0  0  0  0  0  0  0  0  0
   -2.8883  -11.2602   20.0347 H   0  0  0  0  0  0  0  0  0  0  0  0
   -4.4873  -12.2708   20.8230 H   0  0  0  0  0  0  0  0  0  0  0  0
   -5.5258  -16.3166   21.2316 H   0  0  0  0  0  0  0  0  0  0  0  0
   -6.2818  -16.5521   19.6418 H   0  0  0  0  0  0  0  0  0  0  0  0
   -6.8839  -18.4838   19.9712 H   0  0  0  0  0  0  0  0  0  0  0  0
   -5.4434  -18.3080   20.7864 H   0  0  0  0  0  0  0  0  0  0  0  0
   -6.0250  -20.8093   23.3003 H   0  0  0  0  0  0  0  0  0  0  0  0
   -7.0958  -23.2765   23.9197 H   0  0  0  0  0  0  0  0  0  0  0  0
   -9.5537  -23.9421   23.5020 H   0  0  0  0  0  0  0  0  0  0  0  0
  -10.9512  -21.8998   22.6295 H   0  0  0  0  0  0  0  0  0  0  0  0
   -7.6074  -16.4947   22.8435 H   0  0  0  0  0  0  0  0  0  0  0  0
   -8.5749  -17.5186   21.7687 H   0  0  0  0  0  0  0  0  0  0  0  0
   -9.0370  -14.9300   19.6694 H   0  0  0  0  0  0  0  0  0  0  0  0
   -8.2547  -15.8519   19.5412 H   0  0  0  0  0  0  0  0  0  0  0  0
   -3.4582   -8.6435   17.7287 H   0  0  0  0  0  0  0  0  0  0  0  0
    0.2400   -5.0558   15.9037 H   0  0  0  0  0  0  0  0  0  0  0  0
   -0.4247   -2.9095   14.8355 H   0  0  0  0  0  0  0  0  0  0  0  0
   -2.6082   -1.8811   15.3701 H   0  0  0  0  0  0  0  0  0  0  0  0
   -4.2620   -3.1118   16.7760 H   0  0  0  0  0  0  0  0  0  0  0  0
  1  2  1  0
  2  3  1  0
  3  4  1  0
  4  5  2  0
  4  6  1  0
  6  7  1  0
  7  8  1  0
  8  9  1  0
  9 10  1  0
 10 11  2  0
 11 12  1  0
 12 13  2  0
 13 14  1  0
 14 15  2  0
  9 16  1  0
 16 17  1  0
  2 18  1  0
 18 19  2  0
 18 20  1  0
 20 21  1  0
 21 22  2  0
 22 23  1  0
 23 24  2  0
 24 25  1  0
 25 26  2  0
 26 27  1  0
 27 28  2  0
 28 29  1  0
 17  6  1  0
 29 21  1  0
 15 10  1  0
 28 23  1  0
  1 30  1  0
  1 31  1  0
  1 32  1  0
  2 33  1  0
  3 34  1  0
  7 35  1  0
  7 36  1  0
  8 37  1  0
  8 38  1  0
 11 39  1  0
 12 40  1  0
 13 41  1  0
 14 42  1  0
 16 43  1  0
 16 44  1  0
 17 45  1  0
 17 46  1  0
 20 47  1  0
 24 48  1  0
 25 49  1  0
 26 50  1  0
 27 51  1  0
M  END
>  <Energy>  (1194) 
1192.4853676335285

>  <compound_id>  (1194) 
11042

>  <target_id>  (1194) 
1

>  <reference_id>  (1194) 
69

>  <inspiration_ids>  (1194) 
[69, 82]

>  <energy_score>  (1194) 
1123.4528301843693

>  <distance_score>  (1194) 
10.829264446151333

>  <path>  (1194) 
/opt/xchem-fragalysis-2/maxwin/BulkDock/SCRATCH/511020/C11042-P69/C11042-P69.minimised.mol

>  <scratch_subdir>  (1194) 
/opt/xchem-fragalysis-2/maxwin/BulkDock/SCRATCH/511020/C11042-P69

>  <fragmenstein_runtime>  (1194) 
56.4917356967926

>  <fragmenstein_outcome>  (1194) 
too moved

>  <fragmenstein_mode>  (1194) 
expansion

>  <fragmenstein_error>  (1194) 


$$$$
C11042-P82
     RDKit          3D

 51 54  0  0  0  0  0  0  0  0999 V2000
   -9.0284  -13.4883   13.9917 C   0  0  0  0  0  0  0  0  0  0  0  0
   -7.5021  -14.2182   14.0277 C   0  0  0  0  0  0  0  0  0  0  0  0
   -7.6047  -15.6795   15.1609 N   0  0  0  0  0  0  0  0  0  0  0  0
   -6.9018  -15.9859   16.6813 C   0  0  0  0  0  0  0  0  0  0  0  0
   -6.1921  -15.2001   16.9937 O   0  0  0  0  0  0  0  0  0  0  0  0
   -7.2141  -17.2879   18.0508 N   0  0  0  0  0  0  0  0  0  0  0  0
   -6.3538  -18.8357   18.4008 C   0  0  0  0  0  0  0  0  0  0  0  0
   -5.5895  -19.5055   19.9571 C   0  0  0  0  0  0  0  0  0  0  0  0
   -6.2360  -19.1571   21.2620 N   0  0  0  0  0  0  0  0  0  0  0  0
   -6.4502  -19.7810   22.5734 C   0  0  0  0  0  0  0  0  0  0  0  0
   -5.9576  -19.0252   23.6661 C   0  0  0  0  0  0  0  0  0  0  0  0
   -4.8936  -19.9458   24.9085 C   0  0  0  0  0  0  0  0  0  0  0  0
   -4.3246  -21.2575   24.7899 C   0  0  0  0  0  0  0  0  0  0  0  0
   -4.9003  -21.8604   23.7028 C   0  0  0  0  0  0  0  0  0  0  0  0
   -5.9642  -21.1658   22.8480 N   0  0  0  0  0  0  0  0  0  0  0  0
   -7.2090  -18.3100   20.8943 C   0  0  0  0  0  0  0  0  0  0  0  0
   -6.6598  -17.3634   19.7362 C   0  0  0  0  0  0  0  0  0  0  0  0
   -6.6920  -12.5115   13.0736 C   0  0  0  0  0  0  0  0  0  0  0  0
   -6.8361  -12.6152   11.9285 O   0  0  0  0  0  0  0  0  0  0  0  0
   -5.6653  -10.9608   13.6573 N   0  0  0  0  0  0  0  0  0  0  0  0
   -4.8254   -9.7638   12.8111 C   0  0  0  0  0  0  0  0  0  0  0  0
   -5.2490   -8.6005   12.4887 N   0  0  0  0  0  0  0  0  0  0  0  0
   -4.9924   -8.3317   11.1639 C   0  0  0  0  0  0  0  0  0  0  0  0
   -5.8437   -7.7269   10.4099 C   0  0  0  0  0  0  0  0  0  0  0  0
   -5.3568   -6.4780   10.6213 C   0  0  0  0  0  0  0  0  0  0  0  0
   -3.9430   -6.1347   10.5140 C   0  0  0  0  0  0  0  0  0  0  0  0
   -3.0011   -7.1115   10.4526 C   0  0  0  0  0  0  0  0  0  0  0  0
   -3.6718   -8.2103   10.8307 C   0  0  0  0  0  0  0  0  0  0  0  0
   -3.6470   -9.7881   11.0177 S   0  0  0  0  0  0  0  0  0  0  0  0
   -9.1595  -13.0890   12.9754 H   0  0  0  0  0  0  0  0  0  0  0  0
   -9.1145  -12.6038   14.6251 H   0  0  0  0  0  0  0  0  0  0  0  0
   -9.8287  -14.2048   14.1360 H   0  0  0  0  0  0  0  0  0  0  0  0
   -7.1259  -14.3789   15.0980 H   0  0  0  0  0  0  0  0  0  0  0  0
   -8.1466  -16.4621   14.9243 H   0  0  0  0  0  0  0  0  0  0  0  0
   -7.1680  -19.5538   18.3243 H   0  0  0  0  0  0  0  0  0  0  0  0
   -5.3948  -18.8419   17.8654 H   0  0  0  0  0  0  0  0  0  0  0  0
   -5.4487  -20.5527   19.9786 H   0  0  0  0  0  0  0  0  0  0  0  0
   -4.5675  -19.1247   19.8651 H   0  0  0  0  0  0  0  0  0  0  0  0
   -6.3166  -18.0214   23.6715 H   0  0  0  0  0  0  0  0  0  0  0  0
   -5.1869  -19.8183   25.9769 H   0  0  0  0  0  0  0  0  0  0  0  0
   -3.7732  -21.7688   25.5600 H   0  0  0  0  0  0  0  0  0  0  0  0
   -4.7736  -22.9058   23.4410 H   0  0  0  0  0  0  0  0  0  0  0  0
   -7.8021  -19.0777   20.4438 H   0  0  0  0  0  0  0  0  0  0  0  0
   -7.6602  -17.7635   21.7231 H   0  0  0  0  0  0  0  0  0  0  0  0
   -6.9527  -16.5024   20.2815 H   0  0  0  0  0  0  0  0  0  0  0  0
   -5.5766  -17.3556   19.6808 H   0  0  0  0  0  0  0  0  0  0  0  0
   -5.6718  -10.9233   14.6192 H   0  0  0  0  0  0  0  0  0  0  0  0
   -6.8172   -8.0300   10.1069 H   0  0  0  0  0  0  0  0  0  0  0  0
   -6.1292   -5.9178   10.0655 H   0  0  0  0  0  0  0  0  0  0  0  0
   -3.6715   -5.2158   10.0200 H   0  0  0  0  0  0  0  0  0  0  0  0
   -1.9689   -7.0442   10.1682 H   0  0  0  0  0  0  0  0  0  0  0  0
  1  2  1  0
  2  3  1  0
  3  4  1  0
  4  5  2  0
  4  6  1  0
  6  7  1  0
  7  8  1  0
  8  9  1  0
  9 10  1  0
 10 11  2  0
 11 12  1  0
 12 13  2  0
 13 14  1  0
 14 15  2  0
  9 16  1  0
 16 17  1  0
  2 18  1  0
 18 19  2  0
 18 20  1  0
 20 21  1  0
 21 22  2  0
 22 23  1  0
 23 24  2  0
 24 25  1  0
 25 26  2  0
 26 27  1  0
 27 28  2  0
 28 29  1  0
 17  6  1  0
 29 21  1  0
 15 10  1  0
 28 23  1  0
  1 30  1  0
  1 31  1  0
  1 32  1  0
  2 33  1  0
  3 34  1  0
  7 35  1  0
  7 36  1  0
  8 37  1  0
  8 38  1  0
 11 39  1  0
 12 40  1  0
 13 41  1  0
 14 42  1  0
 16 43  1  0
 16 44  1  0
 17 45  1  0
 17 46  1  0
 20 47  1  0
 24 48  1  0
 25 49  1  0
 26 50  1  0
 27 51  1  0
M  END
>  <Energy>  (1195) 
1187.3530080216019

>  <compound_id>  (1195) 
11042

>  <target_id>  (1195) 
1

>  <reference_id>  (1195) 
82

>  <inspiration_ids>  (1195) 
[69, 82]

>  <energy_score>  (1195) 
1118.3204705724552

>  <distance_score>  (1195) 
9.476988266951375

>  <path>  (1195) 
/opt/xchem-fragalysis-2/maxwin/BulkDock/SCRATCH/511020/C11042-P82/C11042-P82.minimised.mol

>  <scratch_subdir>  (1195) 
/opt/xchem-fragalysis-2/maxwin/BulkDock/SCRATCH/511020/C11042-P82

>  <fragmenstein_runtime>  (1195) 
46.32588863372803

>  <fragmenstein_outcome>  (1195) 
too moved

>  <fragmenstein_mode>  (1195) 
expansion

>  <fragmenstein_error>  (1195) 


$$$$
C11043-P69
     RDKit          3D

 52 55  0  0  0  0  0  0  0  0999 V2000
   -5.2173  -10.9253   13.5933 O   0  0  0  0  0  0  0  0  0  0  0  0
   -5.9829  -10.0846   13.9530 C   0  0  0  0  0  0  0  0  0  0  0  0
   -6.6543  -10.1367   15.9785 C   0  0  0  0  0  0  0  0  0  0  0  0
   -7.3222  -11.4279   17.5631 C   0  0  0  0  0  0  0  0  0  0  0  0
   -8.1801  -13.0140   18.4520 C   0  0  0  0  0  0  0  0  0  0  0  0
   -8.4308  -13.9707   20.1853 C   0  0  0  0  0  0  0  0  0  0  0  0
   -8.6440  -13.1679   21.0211 O   0  0  0  0  0  0  0  0  0  0  0  0
   -8.2158  -15.8511   20.8466 N   0  0  0  0  0  0  0  0  0  0  0  0
   -8.1562  -16.6010   22.7467 C   0  0  0  0  0  0  0  0  0  0  0  0
   -9.7276  -16.7804   24.3027 C   0  0  0  0  0  0  0  0  0  0  0  0
   -9.3488  -18.5717   23.4247 N   0  0  0  0  0  0  0  0  0  0  0  0
  -10.2709  -20.1417   23.3364 C   0  0  0  0  0  0  0  0  0  0  0  0
  -11.4317  -20.5640   24.0000 C   0  0  0  0  0  0  0  0  0  0  0  0
  -12.0698  -21.8387   23.8566 C   0  0  0  0  0  0  0  0  0  0  0  0
  -11.5682  -22.7631   22.9973 C   0  0  0  0  0  0  0  0  0  0  0  0
  -10.4505  -22.3490   22.3455 C   0  0  0  0  0  0  0  0  0  0  0  0
   -9.8234  -21.1403   22.5352 N   0  0  0  0  0  0  0  0  0  0  0  0
   -7.6328  -18.5074   22.3261 C   0  0  0  0  0  0  0  0  0  0  0  0
   -6.8288  -16.8208   21.3660 C   0  0  0  0  0  0  0  0  0  0  0  0
   -6.4895   -8.6878   12.9127 N   0  0  0  0  0  0  0  0  0  0  0  0
   -5.9361   -8.1472   11.2083 C   0  0  0  0  0  0  0  0  0  0  0  0
   -6.6923   -7.8615    9.8643 N   0  0  0  0  0  0  0  0  0  0  0  0
   -7.1287   -6.2031    9.1524 C   0  0  0  0  0  0  0  0  0  0  0  0
   -8.1056   -5.4447    7.9042 C   0  0  0  0  0  0  0  0  0  0  0  0
   -8.1470   -4.2920    7.0907 C   0  0  0  0  0  0  0  0  0  0  0  0
   -7.0028   -3.6273    7.0119 C   0  0  0  0  0  0  0  0  0  0  0  0
   -6.0748   -4.1581    7.8715 C   0  0  0  0  0  0  0  0  0  0  0  0
   -6.1865   -5.4060    9.2194 C   0  0  0  0  0  0  0  0  0  0  0  0
   -4.9089   -6.4733   10.8159 S   0  0  0  0  0  0  0  0  0  0  0  0
   -7.5973   -9.9590   15.2563 H   0  0  0  0  0  0  0  0  0  0  0  0
   -6.7083   -9.2015   16.5597 H   0  0  0  0  0  0  0  0  0  0  0  0
   -6.3857  -11.9495   17.9601 H   0  0  0  0  0  0  0  0  0  0  0  0
   -8.0312  -11.8644   16.8125 H   0  0  0  0  0  0  0  0  0  0  0  0
   -7.7893  -13.6709   17.7038 H   0  0  0  0  0  0  0  0  0  0  0  0
   -9.1853  -12.5553   18.4411 H   0  0  0  0  0  0  0  0  0  0  0  0
   -7.3081  -16.1824   23.3360 H   0  0  0  0  0  0  0  0  0  0  0  0
   -7.1867  -17.0943   23.1069 H   0  0  0  0  0  0  0  0  0  0  0  0
   -9.9958  -17.1518   25.2720 H   0  0  0  0  0  0  0  0  0  0  0  0
   -9.0013  -16.1510   25.0258 H   0  0  0  0  0  0  0  0  0  0  0  0
  -11.9267  -20.0157   24.7317 H   0  0  0  0  0  0  0  0  0  0  0  0
  -12.9492  -22.0779   24.4444 H   0  0  0  0  0  0  0  0  0  0  0  0
  -12.0155  -23.7321   22.8370 H   0  0  0  0  0  0  0  0  0  0  0  0
   -9.9824  -22.9908   21.6048 H   0  0  0  0  0  0  0  0  0  0  0  0
   -7.4551  -19.3338   21.6200 H   0  0  0  0  0  0  0  0  0  0  0  0
   -6.8866  -18.8072   23.0868 H   0  0  0  0  0  0  0  0  0  0  0  0
   -5.7338  -16.7974   21.3156 H   0  0  0  0  0  0  0  0  0  0  0  0
   -6.6633  -17.3686   20.4071 H   0  0  0  0  0  0  0  0  0  0  0  0
   -7.1991   -8.1707   13.3854 H   0  0  0  0  0  0  0  0  0  0  0  0
   -8.9569   -6.0281    7.5078 H   0  0  0  0  0  0  0  0  0  0  0  0
   -8.9756   -4.1006    6.4172 H   0  0  0  0  0  0  0  0  0  0  0  0
   -6.7959   -2.8361    6.3088 H   0  0  0  0  0  0  0  0  0  0  0  0
   -5.0500   -3.7597    7.7140 H   0  0  0  0  0  0  0  0  0  0  0  0
  1  2  2  0
  2  3  1  0
  3  4  1  0
  4  5  1  0
  5  6  1  0
  6  7  2  0
  6  8  1  0
  8  9  1  0
  9 10  1  0
 10 11  1  0
 11 12  1  0
 12 13  2  0
 13 14  1  0
 14 15  2  0
 15 16  1  0
 16 17  2  0
 11 18  1  0
 18 19  1  0
  2 20  1  0
 20 21  1  0
 21 22  2  0
 22 23  1  0
 23 24  2  0
 24 25  1  0
 25 26  2  0
 26 27  1  0
 27 28  2  0
 28 29  1  0
 19  8  1  0
 29 21  1  0
 17 12  1  0
 28 23  1  0
  3 30  1  0
  3 31  1  0
  4 32  1  0
  4 33  1  0
  5 34  1  0
  5 35  1  0
  9 36  1  0
  9 37  1  0
 10 38  1  0
 10 39  1  0
 13 40  1  0
 14 41  1  0
 15 42  1  0
 16 43  1  0
 18 44  1  0
 18 45  1  0
 19 46  1  0
 19 47  1  0
 20 48  1  0
 24 49  1  0
 25 50  1  0
 26 51  1  0
 27 52  1  0
M  END
>  <Energy>  (1196) 
2060.5037955659436

>  <compound_id>  (1196) 
11043

>  <target_id>  (1196) 
1

>  <reference_id>  (1196) 
69

>  <inspiration_ids>  (1196) 
[69, 82]

>  <energy_score>  (1196) 
1936.4495274335166

>  <distance_score>  (1196) 
7.090663012763822

>  <path>  (1196) 
/opt/xchem-fragalysis-2/maxwin/BulkDock/SCRATCH/511020/C11043-P69/C11043-P69.minimised.mol

>  <scratch_subdir>  (1196) 
/opt/xchem-fragalysis-2/maxwin/BulkDock/SCRATCH/511020/C11043-P69

>  <fragmenstein_runtime>  (1196) 
33.974369049072266

>  <fragmenstein_outcome>  (1196) 
too moved

>  <fragmenstein_mode>  (1196) 
expansion

>  <fragmenstein_error>  (1196) 


$$$$
C11043-P82
     RDKit          3D

 52 55  0  0  0  0  0  0  0  0999 V2000
   -7.3149  -10.0287   15.2378 O   0  0  0  0  0  0  0  0  0  0  0  0
   -8.1687  -10.8346   14.9491 C   0  0  0  0  0  0  0  0  0  0  0  0
   -8.3504  -12.3585   16.6858 C   0  0  0  0  0  0  0  0  0  0  0  0
   -8.2622  -13.7520   18.5152 C   0  0  0  0  0  0  0  0  0  0  0  0
   -8.6788  -15.5805   19.8753 C   0  0  0  0  0  0  0  0  0  0  0  0
   -8.1860  -16.5671   21.8987 C   0  0  0  0  0  0  0  0  0  0  0  0
   -7.0803  -17.0278   21.8488 O   0  0  0  0  0  0  0  0  0  0  0  0
   -9.2591  -16.3901   23.7251 N   0  0  0  0  0  0  0  0  0  0  0  0
   -8.7892  -16.6808   25.6629 C   0  0  0  0  0  0  0  0  0  0  0  0
   -8.4486  -18.0835   27.1030 C   0  0  0  0  0  0  0  0  0  0  0  0
   -7.3338  -19.6122   26.0735 N   0  0  0  0  0  0  0  0  0  0  0  0
   -7.9645  -21.0655   27.3055 C   0  0  0  0  0  0  0  0  0  0  0  0
   -9.7593  -21.0680   27.8120 C   0  0  0  0  0  0  0  0  0  0  0  0
  -10.8168  -21.9785   28.3614 C   0  0  0  0  0  0  0  0  0  0  0  0
  -10.5842  -23.2726   28.1102 C   0  0  0  0  0  0  0  0  0  0  0  0
   -9.2235  -23.4454   27.7740 C   0  0  0  0  0  0  0  0  0  0  0  0
   -7.7945  -22.4879   27.4657 N   0  0  0  0  0  0  0  0  0  0  0  0
   -8.4359  -19.2516   24.0816 C   0  0  0  0  0  0  0  0  0  0  0  0
  -10.1002  -17.7424   24.0355 C   0  0  0  0  0  0  0  0  0  0  0  0
   -8.8879  -10.3769   13.1823 N   0  0  0  0  0  0  0  0  0  0  0  0
   -8.4290   -8.9959   11.8556 C   0  0  0  0  0  0  0  0  0  0  0  0
   -8.5108   -8.6432   10.2306 N   0  0  0  0  0  0  0  0  0  0  0  0
   -7.6933   -7.7993    8.6963 C   0  0  0  0  0  0  0  0  0  0  0  0
   -8.0381   -6.2028    7.5704 C   0  0  0  0  0  0  0  0  0  0  0  0
   -7.8065   -4.9218    7.2658 C   0  0  0  0  0  0  0  0  0  0  0  0
   -6.9959   -4.7332    8.2554 C   0  0  0  0  0  0  0  0  0  0  0  0
   -6.6256   -5.8150    9.4458 C   0  0  0  0  0  0  0  0  0  0  0  0
   -6.7425   -7.4052    9.5811 C   0  0  0  0  0  0  0  0  0  0  0  0
   -6.2801   -7.9931   11.1648 S   0  0  0  0  0  0  0  0  0  0  0  0
   -7.6317  -11.7685   17.3340 H   0  0  0  0  0  0  0  0  0  0  0  0
   -9.3233  -12.1907   17.2199 H   0  0  0  0  0  0  0  0  0  0  0  0
   -7.6545  -13.0994   19.1495 H   0  0  0  0  0  0  0  0  0  0  0  0
   -7.8497  -14.4674   17.7905 H   0  0  0  0  0  0  0  0  0  0  0  0
   -9.6421  -15.7935   19.4332 H   0  0  0  0  0  0  0  0  0  0  0  0
   -8.5350  -14.5991   20.3653 H   0  0  0  0  0  0  0  0  0  0  0  0
   -8.1058  -15.8323   25.7977 H   0  0  0  0  0  0  0  0  0  0  0  0
   -9.6533  -16.2011   26.1630 H   0  0  0  0  0  0  0  0  0  0  0  0
   -9.2889  -18.3920   27.6837 H   0  0  0  0  0  0  0  0  0  0  0  0
   -7.8497  -17.4532   27.7891 H   0  0  0  0  0  0  0  0  0  0  0  0
  -10.3820  -20.9016   26.9057 H   0  0  0  0  0  0  0  0  0  0  0  0
  -11.7977  -21.6077   28.6281 H   0  0  0  0  0  0  0  0  0  0  0  0
  -11.2568  -24.0765   28.3661 H   0  0  0  0  0  0  0  0  0  0  0  0
   -9.0239  -24.4483   28.2374 H   0  0  0  0  0  0  0  0  0  0  0  0
   -7.6705  -19.1776   23.2353 H   0  0  0  0  0  0  0  0  0  0  0  0
   -9.5616  -19.6090   23.7224 H   0  0  0  0  0  0  0  0  0  0  0  0
  -11.0821  -17.2806   24.3394 H   0  0  0  0  0  0  0  0  0  0  0  0
  -10.2368  -17.5066   25.0791 H   0  0  0  0  0  0  0  0  0  0  0  0
   -9.5314  -11.1058   12.9247 H   0  0  0  0  0  0  0  0  0  0  0  0
   -9.1477   -6.2040    7.2572 H   0  0  0  0  0  0  0  0  0  0  0  0
   -8.1720   -4.2969    6.4830 H   0  0  0  0  0  0  0  0  0  0  0  0
   -6.2969   -3.9504    7.8998 H   0  0  0  0  0  0  0  0  0  0  0  0
   -5.7695   -5.9288   10.0857 H   0  0  0  0  0  0  0  0  0  0  0  0
  1  2  2  0
  2  3  1  0
  3  4  1  0
  4  5  1  0
  5  6  1  0
  6  7  2  0
  6  8  1  0
  8  9  1  0
  9 10  1  0
 10 11  1  0
 11 12  1  0
 12 13  2  0
 13 14  1  0
 14 15  2  0
 15 16  1  0
 16 17  2  0
 11 18  1  0
 18 19  1  0
  2 20  1  0
 20 21  1  0
 21 22  2  0
 22 23  1  0
 23 24  2  0
 24 25  1  0
 25 26  2  0
 26 27  1  0
 27 28  2  0
 28 29  1  0
 19  8  1  0
 29 21  1  0
 17 12  1  0
 28 23  1  0
  3 30  1  0
  3 31  1  0
  4 32  1  0
  4 33  1  0
  5 34  1  0
  5 35  1  0
  9 36  1  0
  9 37  1  0
 10 38  1  0
 10 39  1  0
 13 40  1  0
 14 41  1  0
 15 42  1  0
 16 43  1  0
 18 44  1  0
 18 45  1  0
 19 46  1  0
 19 47  1  0
 20 48  1  0
 24 49  1  0
 25 50  1  0
 26 51  1  0
 27 52  1  0
M  END
>  <Energy>  (1197) 
3275.6389476834579

>  <compound_id>  (1197) 
11043

>  <target_id>  (1197) 
1

>  <reference_id>  (1197) 
82

>  <inspiration_ids>  (1197) 
[69, 82]

>  <energy_score>  (1197) 
3151.584679550965

>  <distance_score>  (1197) 
5.863572764648308

>  <path>  (1197) 
/opt/xchem-fragalysis-2/maxwin/BulkDock/SCRATCH/511020/C11043-P82/C11043-P82.minimised.mol

>  <scratch_subdir>  (1197) 
/opt/xchem-fragalysis-2/maxwin/BulkDock/SCRATCH/511020/C11043-P82

>  <fragmenstein_runtime>  (1197) 
30.656439304351807

>  <fragmenstein_outcome>  (1197) 
too moved

>  <fragmenstein_mode>  (1197) 
expansion

>  <fragmenstein_error>  (1197) 


$$$$
C6699-P69
     RDKit          3D

 39 42  0  0  0  0  0  0  0  0999 V2000
  -12.3347  -14.0862   16.1009 O   0  0  0  0  0  0  0  0  0  0  0  0
  -10.9952  -13.7189   16.6943 C   0  0  0  0  0  0  0  0  0  0  0  0
  -10.6583  -12.1807   16.1860 C   0  0  0  0  0  0  0  0  0  0  0  0
  -10.0409  -12.8306   14.7476 C   0  0  0  0  0  0  0  0  0  0  0  0
  -10.1634  -12.7168   13.2929 C   0  0  0  0  0  0  0  0  0  0  0  0
  -10.3072  -11.3999   13.0426 C   0  0  0  0  0  0  0  0  0  0  0  0
   -9.3074  -10.5501   11.9418 S   0  0  0  0  0  0  0  0  0  0  0  0
   -8.7925   -9.7305   13.3642 C   0  0  0  0  0  0  0  0  0  0  0  0
   -9.6961   -9.6817   14.3317 N   0  0  0  0  0  0  0  0  0  0  0  0
  -10.7097  -10.6400   14.1435 C   0  0  0  0  0  0  0  0  0  0  0  0
  -11.4317  -11.4580   15.2330 C   0  0  0  0  0  0  0  0  0  0  0  0
  -10.0456  -15.5896   17.7006 N   0  0  0  0  0  0  0  0  0  0  0  0
  -10.7900  -17.6118   17.6750 C   0  0  0  0  0  0  0  0  0  0  0  0
  -12.1124  -19.0771   17.4797 C   0  0  0  0  0  0  0  0  0  0  0  0
  -11.4595  -20.1709   18.1856 N   0  0  0  0  0  0  0  0  0  0  0  0
  -12.0296  -20.7764   19.3312 C   0  0  0  0  0  0  0  0  0  0  0  0
  -13.4160  -20.9395   19.4960 C   0  0  0  0  0  0  0  0  0  0  0  0
  -13.9950  -21.3864   20.7053 C   0  0  0  0  0  0  0  0  0  0  0  0
  -13.1720  -21.6736   21.7718 C   0  0  0  0  0  0  0  0  0  0  0  0
  -11.8405  -21.6488   21.6533 N   0  0  0  0  0  0  0  0  0  0  0  0
  -11.3160  -21.2902   20.4330 C   0  0  0  0  0  0  0  0  0  0  0  0
  -10.1461  -19.5129   18.1671 C   0  0  0  0  0  0  0  0  0  0  0  0
  -10.6546  -17.5045   18.0927 C   0  0  0  0  0  0  0  0  0  0  0  0
   -9.3968  -13.7298   14.7932 H   0  0  0  0  0  0  0  0  0  0  0  0
   -9.6438  -13.4053   12.6347 H   0  0  0  0  0  0  0  0  0  0  0  0
   -7.8440   -9.2163   13.4218 H   0  0  0  0  0  0  0  0  0  0  0  0
  -12.3682  -11.9238   14.8959 H   0  0  0  0  0  0  0  0  0  0  0  0
  -10.2502  -18.4520   16.5922 H   0  0  0  0  0  0  0  0  0  0  0  0
  -11.6567  -17.4086   16.6955 H   0  0  0  0  0  0  0  0  0  0  0  0
  -13.1527  -19.0271   17.7640 H   0  0  0  0  0  0  0  0  0  0  0  0
  -12.1180  -19.3174   16.4015 H   0  0  0  0  0  0  0  0  0  0  0  0
  -14.0925  -20.7022   18.6797 H   0  0  0  0  0  0  0  0  0  0  0  0
  -15.0719  -21.4673   20.8024 H   0  0  0  0  0  0  0  0  0  0  0  0
  -13.5594  -21.9567   22.7453 H   0  0  0  0  0  0  0  0  0  0  0  0
  -10.2322  -21.3830   20.4080 H   0  0  0  0  0  0  0  0  0  0  0  0
   -9.6130  -19.8390   17.2519 H   0  0  0  0  0  0  0  0  0  0  0  0
   -9.4865  -19.9429   18.9280 H   0  0  0  0  0  0  0  0  0  0  0  0
   -9.1615  -17.6552   17.7375 H   0  0  0  0  0  0  0  0  0  0  0  0
  -11.0974  -17.2929   19.2514 H   0  0  0  0  0  0  0  0  0  0  0  0
  1  2  2  0
  2  3  1  0
  3  4  2  0
  4  5  1  0
  5  6  2  0
  6  7  1  0
  7  8  1  0
  8  9  2  0
  9 10  1  0
 10 11  2  0
  2 12  1  0
 12 13  1  0
 13 14  1  0
 14 15  1  0
 15 16  1  0
 16 17  2  0
 17 18  1  0
 18 19  2  0
 19 20  1  0
 20 21  2  0
 15 22  1  0
 22 23  1  0
 11  3  1  0
 23 12  1  0
 10  6  1  0
 21 16  1  0
  4 24  1  0
  5 25  1  0
  8 26  1  0
 11 27  1  0
 13 28  1  0
 13 29  1  0
 14 30  1  0
 14 31  1  0
 17 32  1  0
 18 33  1  0
 19 34  1  0
 21 35  1  0
 22 36  1  0
 22 37  1  0
 23 38  1  0
 23 39  1  0
M  END
>  <Energy>  (1198) 
2105.2691988702531

>  <compound_id>  (1198) 
6699

>  <target_id>  (1198) 
1

>  <reference_id>  (1198) 
69

>  <inspiration_ids>  (1198) 
[69, 82]

>  <energy_score>  (1198) 
1940.724993600619

>  <distance_score>  (1198) 
12.475321508155726

>  <path>  (1198) 
/opt/xchem-fragalysis-2/maxwin/BulkDock/SCRATCH/511020/C6699-P69/C6699-P69.minimised.mol

>  <scratch_subdir>  (1198) 
/opt/xchem-fragalysis-2/maxwin/BulkDock/SCRATCH/511020/C6699-P69

>  <fragmenstein_runtime>  (1198) 
31.59968876838684

>  <fragmenstein_outcome>  (1198) 
too moved

>  <fragmenstein_mode>  (1198) 
expansion

>  <fragmenstein_error>  (1198) 


$$$$
C6699-P82
     RDKit          3D

 39 42  0  0  0  0  0  0  0  0999 V2000
   -6.1064  -12.7837   19.0313 O   0  0  0  0  0  0  0  0  0  0  0  0
   -7.2556  -12.6184   18.8891 C   0  0  0  0  0  0  0  0  0  0  0  0
   -7.5201  -11.1154   18.4758 C   0  0  0  0  0  0  0  0  0  0  0  0
   -8.2186   -9.6909   18.9503 C   0  0  0  0  0  0  0  0  0  0  0  0
   -7.8547   -8.2002   18.5083 C   0  0  0  0  0  0  0  0  0  0  0  0
   -6.7655   -8.0122   17.3304 C   0  0  0  0  0  0  0  0  0  0  0  0
   -6.0930   -6.5757   16.6004 S   0  0  0  0  0  0  0  0  0  0  0  0
   -5.2624   -7.5464   15.4534 C   0  0  0  0  0  0  0  0  0  0  0  0
   -5.3597   -8.8513   15.5839 N   0  0  0  0  0  0  0  0  0  0  0  0
   -6.2155   -9.1653   16.6348 C   0  0  0  0  0  0  0  0  0  0  0  0
   -6.5305  -10.6233   17.2013 C   0  0  0  0  0  0  0  0  0  0  0  0
   -8.6228  -13.7548   18.9211 N   0  0  0  0  0  0  0  0  0  0  0  0
   -8.8490  -15.6816   19.3558 C   0  0  0  0  0  0  0  0  0  0  0  0
   -7.7393  -16.5066   20.8894 C   0  0  0  0  0  0  0  0  0  0  0  0
   -6.6810  -17.4190   20.3139 N   0  0  0  0  0  0  0  0  0  0  0  0
   -6.6824  -18.8050   20.6890 C   0  0  0  0  0  0  0  0  0  0  0  0
   -6.4883  -19.8669   19.7954 C   0  0  0  0  0  0  0  0  0  0  0  0
   -6.6980  -21.2063   20.1719 C   0  0  0  0  0  0  0  0  0  0  0  0
   -7.0614  -21.4837   21.4672 C   0  0  0  0  0  0  0  0  0  0  0  0
   -7.1561  -20.5190   22.3855 N   0  0  0  0  0  0  0  0  0  0  0  0
   -6.9338  -19.2327   21.9864 C   0  0  0  0  0  0  0  0  0  0  0  0
   -7.0982  -17.1581   18.9340 C   0  0  0  0  0  0  0  0  0  0  0  0
   -8.4587  -15.5701   19.0133 C   0  0  0  0  0  0  0  0  0  0  0  0
   -8.0749   -9.4821   17.8884 H   0  0  0  0  0  0  0  0  0  0  0  0
   -8.3565   -7.3411   18.9746 H   0  0  0  0  0  0  0  0  0  0  0  0
   -4.6607   -7.0933   14.6765 H   0  0  0  0  0  0  0  0  0  0  0  0
   -5.6352  -11.2101   17.1039 H   0  0  0  0  0  0  0  0  0  0  0  0
   -9.7964  -16.2020   19.9040 H   0  0  0  0  0  0  0  0  0  0  0  0
  -10.0845  -15.3186   19.2006 H   0  0  0  0  0  0  0  0  0  0  0  0
   -8.2938  -17.3358   21.3445 H   0  0  0  0  0  0  0  0  0  0  0  0
   -7.7636  -16.2951   21.9024 H   0  0  0  0  0  0  0  0  0  0  0  0
   -6.2005  -19.6799   18.7673 H   0  0  0  0  0  0  0  0  0  0  0  0
   -6.5870  -22.0065   19.4504 H   0  0  0  0  0  0  0  0  0  0  0  0
   -7.2687  -22.4924   21.8044 H   0  0  0  0  0  0  0  0  0  0  0  0
   -6.9474  -18.5051   22.7809 H   0  0  0  0  0  0  0  0  0  0  0  0
   -7.5334  -17.8542   18.2138 H   0  0  0  0  0  0  0  0  0  0  0  0
   -6.0670  -17.3331   18.5203 H   0  0  0  0  0  0  0  0  0  0  0  0
   -8.2985  -14.5395   20.1947 H   0  0  0  0  0  0  0  0  0  0  0  0
   -8.0751  -15.4923   17.8223 H   0  0  0  0  0  0  0  0  0  0  0  0
  1  2  2  0
  2  3  1  0
  3  4  2  0
  4  5  1  0
  5  6  2  0
  6  7  1  0
  7  8  1  0
  8  9  2  0
  9 10  1  0
 10 11  2  0
  2 12  1  0
 12 13  1  0
 13 14  1  0
 14 15  1  0
 15 16  1  0
 16 17  2  0
 17 18  1  0
 18 19  2  0
 19 20  1  0
 20 21  2  0
 15 22  1  0
 22 23  1  0
 11  3  1  0
 23 12  1  0
 10  6  1  0
 21 16  1  0
  4 24  1  0
  5 25  1  0
  8 26  1  0
 11 27  1  0
 13 28  1  0
 13 29  1  0
 14 30  1  0
 14 31  1  0
 17 32  1  0
 18 33  1  0
 19 34  1  0
 21 35  1  0
 22 36  1  0
 22 37  1  0
 23 38  1  0
 23 39  1  0
M  END
>  <Energy>  (1199) 
1511.5804734708181

>  <compound_id>  (1199) 
6699

>  <target_id>  (1199) 
1

>  <reference_id>  (1199) 
82

>  <inspiration_ids>  (1199) 
[69, 82]

>  <energy_score>  (1199) 
1347.0362682011498

>  <distance_score>  (1199) 
12.891964042690685

>  <path>  (1199) 
/opt/xchem-fragalysis-2/maxwin/BulkDock/SCRATCH/511020/C6699-P82/C6699-P82.minimised.mol

>  <scratch_subdir>  (1199) 
/opt/xchem-fragalysis-2/maxwin/BulkDock/SCRATCH/511020/C6699-P82

>  <fragmenstein_runtime>  (1199) 
28.48602032661438

>  <fragmenstein_outcome>  (1199) 
too moved

>  <fragmenstein_mode>  (1199) 
expansion

>  <fragmenstein_error>  (1199) 


$$$$
C11044-P69
     RDKit          3D

 39 42  0  0  0  0  0  0  0  0999 V2000
   -3.8524  -10.1009   13.9462 O   0  0  0  0  0  0  0  0  0  0  0  0
   -5.0272  -10.5330   14.2880 C   0  0  0  0  0  0  0  0  0  0  0  0
   -6.0190  -10.4996   13.0219 C   0  0  0  0  0  0  0  0  0  0  0  0
   -6.4658   -9.3283   12.5422 N   0  0  0  0  0  0  0  0  0  0  0  0
   -5.4096   -8.8047   11.7891 C   0  0  0  0  0  0  0  0  0  0  0  0
   -5.0119   -7.4621   11.6727 C   0  0  0  0  0  0  0  0  0  0  0  0
   -3.7715   -7.1578   11.1262 C   0  0  0  0  0  0  0  0  0  0  0  0
   -2.9615   -8.1585   10.6180 C   0  0  0  0  0  0  0  0  0  0  0  0
   -3.4071   -9.4804   10.5523 C   0  0  0  0  0  0  0  0  0  0  0  0
   -4.6091   -9.7812   11.1980 C   0  0  0  0  0  0  0  0  0  0  0  0
   -5.3680  -11.3088   11.5475 S   0  0  0  0  0  0  0  0  0  0  0  0
   -5.7132  -11.1038   16.0492 N   0  0  0  0  0  0  0  0  0  0  0  0
   -4.8489  -11.3393   17.6728 C   0  0  0  0  0  0  0  0  0  0  0  0
   -5.8163  -12.2931   19.2457 C   0  0  0  0  0  0  0  0  0  0  0  0
   -7.4161  -13.3723   19.9352 N   0  0  0  0  0  0  0  0  0  0  0  0
   -7.9096  -15.2436   20.9045 C   0  0  0  0  0  0  0  0  0  0  0  0
   -7.2570  -16.8146   21.4144 C   0  0  0  0  0  0  0  0  0  0  0  0
   -7.9896  -18.1518   22.5629 C   0  0  0  0  0  0  0  0  0  0  0  0
   -9.5245  -18.2463   23.7298 C   0  0  0  0  0  0  0  0  0  0  0  0
   -9.2795  -16.3681   24.1332 C   0  0  0  0  0  0  0  0  0  0  0  0
   -8.1059  -16.1731   22.5349 N   0  0  0  0  0  0  0  0  0  0  0  0
   -7.3232  -12.0205   18.2607 C   0  0  0  0  0  0  0  0  0  0  0  0
   -6.3153  -10.4559   16.9635 C   0  0  0  0  0  0  0  0  0  0  0  0
   -5.5902   -6.6736   12.1322 H   0  0  0  0  0  0  0  0  0  0  0  0
   -3.4324   -6.1379   11.1124 H   0  0  0  0  0  0  0  0  0  0  0  0
   -1.9800   -7.9051   10.2193 H   0  0  0  0  0  0  0  0  0  0  0  0
   -2.7822  -10.2608   10.1322 H   0  0  0  0  0  0  0  0  0  0  0  0
   -3.9510  -10.6748   17.5068 H   0  0  0  0  0  0  0  0  0  0  0  0
   -3.9092  -11.8437   17.9870 H   0  0  0  0  0  0  0  0  0  0  0  0
   -6.2150  -11.5078   19.9017 H   0  0  0  0  0  0  0  0  0  0  0  0
   -4.8386  -12.2659   19.7855 H   0  0  0  0  0  0  0  0  0  0  0  0
   -6.3487  -17.1738   20.9110 H   0  0  0  0  0  0  0  0  0  0  0  0
   -7.3503  -19.0528   22.5806 H   0  0  0  0  0  0  0  0  0  0  0  0
   -9.7917  -19.0531   24.3950 H   0  0  0  0  0  0  0  0  0  0  0  0
   -8.8587  -16.0176   25.1467 H   0  0  0  0  0  0  0  0  0  0  0  0
   -8.1295  -12.4361   17.6753 H   0  0  0  0  0  0  0  0  0  0  0  0
   -7.7160  -11.2851   18.9357 H   0  0  0  0  0  0  0  0  0  0  0  0
   -6.5770   -9.3878   17.1949 H   0  0  0  0  0  0  0  0  0  0  0  0
   -6.8168  -10.0760   16.0916 H   0  0  0  0  0  0  0  0  0  0  0  0
  1  2  2  0
  2  3  1  0
  3  4  2  0
  4  5  1  0
  5  6  2  0
  6  7  1  0
  7  8  2  0
  8  9  1  0
  9 10  2  0
 10 11  1  0
  2 12  1  0
 12 13  1  0
 13 14  1  0
 14 15  1  0
 15 16  1  0
 16 17  2  0
 17 18  1  0
 18 19  2  0
 19 20  1  0
 20 21  2  0
 15 22  1  0
 22 23  1  0
 11  3  1  0
 23 12  1  0
 10  5  1  0
 21 16  1  0
  6 24  1  0
  7 25  1  0
  8 26  1  0
  9 27  1  0
 13 28  1  0
 13 29  1  0
 14 30  1  0
 14 31  1  0
 17 32  1  0
 18 33  1  0
 19 34  1  0
 20 35  1  0
 22 36  1  0
 22 37  1  0
 23 38  1  0
 23 39  1  0
M  END
>  <Energy>  (1200) 
2454.5003127642553

>  <compound_id>  (1200) 
11044

>  <target_id>  (1200) 
1

>  <reference_id>  (1200) 
69

>  <inspiration_ids>  (1200) 
[69, 82]

>  <energy_score>  (1200) 
2291.4789645268975

>  <distance_score>  (1200) 
11.056923306534149

>  <path>  (1200) 
/opt/xchem-fragalysis-2/maxwin/BulkDock/SCRATCH/511020/C11044-P69/C11044-P69.minimised.mol

>  <scratch_subdir>  (1200) 
/opt/xchem-fragalysis-2/maxwin/BulkDock/SCRATCH/511020/C11044-P69

>  <fragmenstein_runtime>  (1200) 
27.334577083587646

>  <fragmenstein_outcome>  (1200) 
too moved

>  <fragmenstein_mode>  (1200) 
expansion

>  <fragmenstein_error>  (1200) 


$$$$
C11044-P82
     RDKit          3D

 39 42  0  0  0  0  0  0  0  0999 V2000
   -5.4686  -14.6341   12.6791 O   0  0  0  0  0  0  0  0  0  0  0  0
   -5.4766  -15.8352   12.9329 C   0  0  0  0  0  0  0  0  0  0  0  0
   -4.7169  -16.5946   11.8507 C   0  0  0  0  0  0  0  0  0  0  0  0
   -5.1937  -16.5117   10.5803 N   0  0  0  0  0  0  0  0  0  0  0  0
   -4.9021  -15.2101   10.0552 C   0  0  0  0  0  0  0  0  0  0  0  0
   -5.6616  -14.4399    9.1334 C   0  0  0  0  0  0  0  0  0  0  0  0
   -5.2876  -13.1179    8.8217 C   0  0  0  0  0  0  0  0  0  0  0  0
   -4.1346  -12.5657    9.3721 C   0  0  0  0  0  0  0  0  0  0  0  0
   -3.3245  -13.3245   10.2324 C   0  0  0  0  0  0  0  0  0  0  0  0
   -3.7376  -14.6349   10.5744 C   0  0  0  0  0  0  0  0  0  0  0  0
   -3.0140  -15.8492   11.6434 S   0  0  0  0  0  0  0  0  0  0  0  0
   -6.1122  -16.5884   14.2760 N   0  0  0  0  0  0  0  0  0  0  0  0
   -6.8716  -15.8522   15.8697 C   0  0  0  0  0  0  0  0  0  0  0  0
   -7.7191  -16.5710   17.4383 C   0  0  0  0  0  0  0  0  0  0  0  0
   -7.9496  -17.9524   17.2866 N   0  0  0  0  0  0  0  0  0  0  0  0
   -7.1214  -18.8405   18.2662 C   0  0  0  0  0  0  0  0  0  0  0  0
   -7.5653  -20.2428   18.6056 C   0  0  0  0  0  0  0  0  0  0  0  0
   -6.8953  -21.0857   19.4803 C   0  0  0  0  0  0  0  0  0  0  0  0
   -5.6808  -20.6433   19.9120 C   0  0  0  0  0  0  0  0  0  0  0  0
   -5.2871  -19.3601   19.5346 C   0  0  0  0  0  0  0  0  0  0  0  0
   -6.0024  -18.4168   18.8596 N   0  0  0  0  0  0  0  0  0  0  0  0
   -8.5779  -17.7669   15.8573 C   0  0  0  0  0  0  0  0  0  0  0  0
   -7.8866  -17.1100   14.0835 C   0  0  0  0  0  0  0  0  0  0  0  0
   -6.5695  -14.8654    8.7179 H   0  0  0  0  0  0  0  0  0  0  0  0
   -5.9050  -12.5295    8.1477 H   0  0  0  0  0  0  0  0  0  0  0  0
   -3.8501  -11.5448    9.1280 H   0  0  0  0  0  0  0  0  0  0  0  0
   -2.4215  -12.9029   10.6625 H   0  0  0  0  0  0  0  0  0  0  0  0
   -7.1819  -14.8558   15.6437 H   0  0  0  0  0  0  0  0  0  0  0  0
   -5.9328  -15.8365   16.4096 H   0  0  0  0  0  0  0  0  0  0  0  0
   -8.6852  -16.0923   17.5165 H   0  0  0  0  0  0  0  0  0  0  0  0
   -7.7402  -16.4156   18.4951 H   0  0  0  0  0  0  0  0  0  0  0  0
   -8.4835  -20.6395   18.1853 H   0  0  0  0  0  0  0  0  0  0  0  0
   -7.2746  -22.0690   19.7253 H   0  0  0  0  0  0  0  0  0  0  0  0
   -5.0211  -21.2846   20.4825 H   0  0  0  0  0  0  0  0  0  0  0  0
   -4.2624  -19.0542   19.6986 H   0  0  0  0  0  0  0  0  0  0  0  0
   -9.5424  -18.3260   15.7311 H   0  0  0  0  0  0  0  0  0  0  0  0
   -8.5876  -16.7695   16.0113 H   0  0  0  0  0  0  0  0  0  0  0  0
   -7.7427  -17.9829   13.4239 H   0  0  0  0  0  0  0  0  0  0  0  0
   -8.6721  -16.5403   13.6215 H   0  0  0  0  0  0  0  0  0  0  0  0
  1  2  2  0
  2  3  1  0
  3  4  2  0
  4  5  1  0
  5  6  2  0
  6  7  1  0
  7  8  2  0
  8  9  1  0
  9 10  2  0
 10 11  1  0
  2 12  1  0
 12 13  1  0
 13 14  1  0
 14 15  1  0
 15 16  1  0
 16 17  2  0
 17 18  1  0
 18 19  2  0
 19 20  1  0
 20 21  2  0
 15 22  1  0
 22 23  1  0
 11  3  1  0
 23 12  1  0
 10  5  1  0
 21 16  1  0
  6 24  1  0
  7 25  1  0
  8 26  1  0
  9 27  1  0
 13 28  1  0
 13 29  1  0
 14 30  1  0
 14 31  1  0
 17 32  1  0
 18 33  1  0
 19 34  1  0
 20 35  1  0
 22 36  1  0
 22 37  1  0
 23 38  1  0
 23 39  1  0
M  END
>  <Energy>  (1201) 
577.15642327184855

>  <compound_id>  (1201) 
11044

>  <target_id>  (1201) 
1

>  <reference_id>  (1201) 
82

>  <inspiration_ids>  (1201) 
[69, 82]

>  <energy_score>  (1201) 
414.1350750344832

>  <distance_score>  (1201) 
13.949253658926361

>  <path>  (1201) 
/opt/xchem-fragalysis-2/maxwin/BulkDock/SCRATCH/511020/C11044-P82/C11044-P82.minimised.mol

>  <scratch_subdir>  (1201) 
/opt/xchem-fragalysis-2/maxwin/BulkDock/SCRATCH/511020/C11044-P82

>  <fragmenstein_runtime>  (1201) 
21.882067680358887

>  <fragmenstein_outcome>  (1201) 
too moved

>  <fragmenstein_mode>  (1201) 
expansion

>  <fragmenstein_error>  (1201) 


$$$$
C11045-P69
     RDKit          3D

 39 42  0  0  0  0  0  0  0  0999 V2000
  -11.9175  -15.4795   14.2879 O   0  0  0  0  0  0  0  0  0  0  0  0
  -10.9150  -15.8148   13.6792 C   0  0  0  0  0  0  0  0  0  0  0  0
  -10.4874  -14.5984   12.5785 C   0  0  0  0  0  0  0  0  0  0  0  0
  -11.1420  -14.2326   11.4572 N   0  0  0  0  0  0  0  0  0  0  0  0
  -10.6641  -12.9919   10.8351 C   0  0  0  0  0  0  0  0  0  0  0  0
  -11.0703  -12.4786    9.5724 C   0  0  0  0  0  0  0  0  0  0  0  0
  -10.5180  -11.2929    9.0591 C   0  0  0  0  0  0  0  0  0  0  0  0
   -9.5638  -10.5956    9.7857 C   0  0  0  0  0  0  0  0  0  0  0  0
   -9.1687  -11.0374   11.0489 C   0  0  0  0  0  0  0  0  0  0  0  0
   -9.7182  -12.2411   11.5497 C   0  0  0  0  0  0  0  0  0  0  0  0
   -9.3333  -13.0304   13.0599 S   0  0  0  0  0  0  0  0  0  0  0  0
   -9.9771  -17.3540   14.0766 N   0  0  0  0  0  0  0  0  0  0  0  0
  -10.4584  -18.4069   13.3236 C   0  0  0  0  0  0  0  0  0  0  0  0
   -9.8341  -19.6806   12.6008 C   0  0  0  0  0  0  0  0  0  0  0  0
  -10.3624  -20.8253   13.3616 N   0  0  0  0  0  0  0  0  0  0  0  0
  -10.0462  -20.5266   14.8129 C   0  0  0  0  0  0  0  0  0  0  0  0
  -10.2053  -18.7241   15.6048 C   0  0  0  0  0  0  0  0  0  0  0  0
   -9.7751  -19.0473   17.6743 C   0  0  0  0  0  0  0  0  0  0  0  0
  -11.3507  -19.3537   18.8114 C   0  0  0  0  0  0  0  0  0  0  0  0
  -11.3171  -20.5078   20.2425 C   0  0  0  0  0  0  0  0  0  0  0  0
  -10.1110  -21.1206   20.5072 C   0  0  0  0  0  0  0  0  0  0  0  0
   -9.0979  -20.5638   19.5172 C   0  0  0  0  0  0  0  0  0  0  0  0
   -8.8620  -19.9788   18.1056 N   0  0  0  0  0  0  0  0  0  0  0  0
  -11.8037  -13.0333    8.9949 H   0  0  0  0  0  0  0  0  0  0  0  0
  -10.8262  -10.9344    8.0794 H   0  0  0  0  0  0  0  0  0  0  0  0
   -9.1100   -9.7034    9.3690 H   0  0  0  0  0  0  0  0  0  0  0  0
   -8.4300  -10.4840   11.6215 H   0  0  0  0  0  0  0  0  0  0  0  0
  -11.4308  -18.5531   13.7155 H   0  0  0  0  0  0  0  0  0  0  0  0
  -10.3063  -17.6982   12.5611 H   0  0  0  0  0  0  0  0  0  0  0  0
   -8.7665  -19.6467   12.3408 H   0  0  0  0  0  0  0  0  0  0  0  0
   -9.9454  -19.7946   11.5396 H   0  0  0  0  0  0  0  0  0  0  0  0
  -11.3664  -20.8582   13.2568 H   0  0  0  0  0  0  0  0  0  0  0  0
   -9.2035  -21.2314   14.8685 H   0  0  0  0  0  0  0  0  0  0  0  0
  -10.2305  -21.2663   15.5733 H   0  0  0  0  0  0  0  0  0  0  0  0
   -9.3118  -18.1330   15.7098 H   0  0  0  0  0  0  0  0  0  0  0  0
  -12.3880  -19.1060   18.5982 H   0  0  0  0  0  0  0  0  0  0  0  0
  -11.9532  -20.5962   21.0835 H   0  0  0  0  0  0  0  0  0  0  0  0
   -9.8834  -21.5023   21.4886 H   0  0  0  0  0  0  0  0  0  0  0  0
   -8.3419  -19.9860   20.0828 H   0  0  0  0  0  0  0  0  0  0  0  0
  1  2  2  0
  2  3  1  0
  3  4  2  0
  4  5  1  0
  5  6  2  0
  6  7  1  0
  7  8  2  0
  8  9  1  0
  9 10  2  0
 10 11  1  0
  2 12  1  0
 12 13  1  0
 13 14  1  0
 14 15  1  0
 15 16  1  0
 16 17  1  0
 17 18  1  0
 18 19  2  0
 19 20  1  0
 20 21  2  0
 21 22  1  0
 22 23  2  0
 11  3  1  0
 17 12  1  0
 23 18  1  0
 10  5  1  0
  6 24  1  0
  7 25  1  0
  8 26  1  0
  9 27  1  0
 13 28  1  0
 13 29  1  0
 14 30  1  0
 14 31  1  0
 15 32  1  0
 16 33  1  0
 16 34  1  0
 17 35  1  0
 19 36  1  0
 20 37  1  0
 21 38  1  0
 22 39  1  0
M  END
>  <Energy>  (1202) 
894.05701391412242

>  <compound_id>  (1202) 
11045

>  <target_id>  (1202) 
1

>  <reference_id>  (1202) 
69

>  <inspiration_ids>  (1202) 
[69, 82]

>  <energy_score>  (1202) 
676.5592905252381

>  <distance_score>  (1202) 
12.668375882142211

>  <path>  (1202) 
/opt/xchem-fragalysis-2/maxwin/BulkDock/SCRATCH/511020/C11045-P69/C11045-P69.minimised.mol

>  <scratch_subdir>  (1202) 
/opt/xchem-fragalysis-2/maxwin/BulkDock/SCRATCH/511020/C11045-P69

>  <fragmenstein_runtime>  (1202) 
21.275561094284058

>  <fragmenstein_outcome>  (1202) 
too moved

>  <fragmenstein_mode>  (1202) 
expansion

>  <fragmenstein_error>  (1202) 


$$$$
C11045-P82
     RDKit          3D

 39 42  0  0  0  0  0  0  0  0999 V2000
   -7.7692  -17.5288   22.2438 O   0  0  0  0  0  0  0  0  0  0  0  0
   -7.5317  -18.7028   22.1901 C   0  0  0  0  0  0  0  0  0  0  0  0
   -6.5279  -18.9708   21.1032 C   0  0  0  0  0  0  0  0  0  0  0  0
   -6.5521  -19.6429   19.9603 N   0  0  0  0  0  0  0  0  0  0  0  0
   -6.7237  -18.7535   18.8724 C   0  0  0  0  0  0  0  0  0  0  0  0
   -7.5509  -18.7974   17.7746 C   0  0  0  0  0  0  0  0  0  0  0  0
   -8.2054  -17.6117   17.0008 C   0  0  0  0  0  0  0  0  0  0  0  0
   -7.9382  -16.3708   17.1722 C   0  0  0  0  0  0  0  0  0  0  0  0
   -7.9228  -16.4797   18.4491 C   0  0  0  0  0  0  0  0  0  0  0  0
   -6.7800  -17.4516   19.1658 C   0  0  0  0  0  0  0  0  0  0  0  0
   -5.9129  -17.5240   20.5472 S   0  0  0  0  0  0  0  0  0  0  0  0
   -8.1459  -19.8364   22.9278 N   0  0  0  0  0  0  0  0  0  0  0  0
   -7.3809  -20.1038   24.2112 C   0  0  0  0  0  0  0  0  0  0  0  0
   -7.3842  -19.5367   25.6920 C   0  0  0  0  0  0  0  0  0  0  0  0
   -8.6158  -19.0042   26.3222 N   0  0  0  0  0  0  0  0  0  0  0  0
   -9.7754  -19.1743   25.3971 C   0  0  0  0  0  0  0  0  0  0  0  0
   -9.4040  -19.8708   23.9347 C   0  0  0  0  0  0  0  0  0  0  0  0
  -10.5504  -21.0108   23.4279 C   0  0  0  0  0  0  0  0  0  0  0  0
  -10.2953  -21.8791   22.3696 C   0  0  0  0  0  0  0  0  0  0  0  0
  -11.0729  -23.0198   22.1528 C   0  0  0  0  0  0  0  0  0  0  0  0
  -12.1147  -23.3048   23.0029 C   0  0  0  0  0  0  0  0  0  0  0  0
  -12.3652  -22.3869   23.9905 C   0  0  0  0  0  0  0  0  0  0  0  0
  -11.6456  -21.2459   24.1993 N   0  0  0  0  0  0  0  0  0  0  0  0
   -8.0294  -19.8128   17.6881 H   0  0  0  0  0  0  0  0  0  0  0  0
   -8.6261  -17.6743   16.0136 H   0  0  0  0  0  0  0  0  0  0  0  0
   -7.2053  -15.8794   16.5367 H   0  0  0  0  0  0  0  0  0  0  0  0
   -8.5643  -15.8055   19.0434 H   0  0  0  0  0  0  0  0  0  0  0  0
   -7.2809  -21.1939   24.2436 H   0  0  0  0  0  0  0  0  0  0  0  0
   -6.3663  -19.8365   23.9215 H   0  0  0  0  0  0  0  0  0  0  0  0
   -6.6229  -18.7468   25.7600 H   0  0  0  0  0  0  0  0  0  0  0  0
   -6.9901  -20.3297   26.3422 H   0  0  0  0  0  0  0  0  0  0  0  0
   -8.8532  -19.5769   27.1404 H   0  0  0  0  0  0  0  0  0  0  0  0
  -10.2984  -18.2053   25.3134 H   0  0  0  0  0  0  0  0  0  0  0  0
  -10.5839  -19.7749   25.8174 H   0  0  0  0  0  0  0  0  0  0  0  0
   -9.9012  -19.0021   23.6026 H   0  0  0  0  0  0  0  0  0  0  0  0
   -9.5040  -21.6804   21.6736 H   0  0  0  0  0  0  0  0  0  0  0  0
  -10.8549  -23.6730   21.3149 H   0  0  0  0  0  0  0  0  0  0  0  0
  -12.7277  -24.1883   22.8846 H   0  0  0  0  0  0  0  0  0  0  0  0
  -13.1754  -22.5886   24.6753 H   0  0  0  0  0  0  0  0  0  0  0  0
  1  2  2  0
  2  3  1  0
  3  4  2  0
  4  5  1  0
  5  6  2  0
  6  7  1  0
  7  8  2  0
  8  9  1  0
  9 10  2  0
 10 11  1  0
  2 12  1  0
 12 13  1  0
 13 14  1  0
 14 15  1  0
 15 16  1  0
 16 17  1  0
 17 18  1  0
 18 19  2  0
 19 20  1  0
 20 21  2  0
 21 22  1  0
 22 23  2  0
 11  3  1  0
 17 12  1  0
 23 18  1  0
 10  5  1  0
  6 24  1  0
  7 25  1  0
  8 26  1  0
  9 27  1  0
 13 28  1  0
 13 29  1  0
 14 30  1  0
 14 31  1  0
 15 32  1  0
 16 33  1  0
 16 34  1  0
 17 35  1  0
 19 36  1  0
 20 37  1  0
 21 38  1  0
 22 39  1  0
M  END
>  <Energy>  (1203) 
492.40911093263315

>  <compound_id>  (1203) 
11045

>  <target_id>  (1203) 
1

>  <reference_id>  (1203) 
82

>  <inspiration_ids>  (1203) 
[69, 82]

>  <energy_score>  (1203) 
274.9113875437504

>  <distance_score>  (1203) 
16.231719904196446

>  <path>  (1203) 
/opt/xchem-fragalysis-2/maxwin/BulkDock/SCRATCH/511020/C11045-P82/C11045-P82.minimised.mol

>  <scratch_subdir>  (1203) 
/opt/xchem-fragalysis-2/maxwin/BulkDock/SCRATCH/511020/C11045-P82

>  <fragmenstein_runtime>  (1203) 
21.57068419456482

>  <fragmenstein_outcome>  (1203) 
too moved

>  <fragmenstein_mode>  (1203) 
expansion

>  <fragmenstein_error>  (1203) 


$$$$
C6700-P69
     RDKit          3D

 39 42  0  0  0  0  0  0  0  0999 V2000
   -9.1746  -15.7685   12.9294 O   0  0  0  0  0  0  0  0  0  0  0  0
   -7.9691  -15.7451   12.9764 C   0  0  0  0  0  0  0  0  0  0  0  0
   -7.3857  -14.4308   12.3702 C   0  0  0  0  0  0  0  0  0  0  0  0
   -8.1743  -13.3719   12.1713 N   0  0  0  0  0  0  0  0  0  0  0  0
   -7.5540  -12.3543   11.4446 C   0  0  0  0  0  0  0  0  0  0  0  0
   -8.1387  -11.1387   11.0166 C   0  0  0  0  0  0  0  0  0  0  0  0
   -7.3919  -10.2257   10.2612 C   0  0  0  0  0  0  0  0  0  0  0  0
   -6.0591  -10.4737    9.9673 C   0  0  0  0  0  0  0  0  0  0  0  0
   -5.4565  -11.6668   10.3872 C   0  0  0  0  0  0  0  0  0  0  0  0
   -6.2299  -12.6104   11.1029 C   0  0  0  0  0  0  0  0  0  0  0  0
   -5.8196  -14.2074   11.6697 S   0  0  0  0  0  0  0  0  0  0  0  0
   -7.0100  -16.7841   13.4138 N   0  0  0  0  0  0  0  0  0  0  0  0
   -6.5932  -17.6426   12.2246 C   0  0  0  0  0  0  0  0  0  0  0  0
   -7.7171  -18.3206   11.3986 C   0  0  0  0  0  0  0  0  0  0  0  0
   -8.4073  -19.3574   12.1512 N   0  0  0  0  0  0  0  0  0  0  0  0
   -8.6103  -18.8907   13.5266 C   0  0  0  0  0  0  0  0  0  0  0  0
   -7.2734  -18.3012   14.1100 C   0  0  0  0  0  0  0  0  0  0  0  0
   -7.1868  -18.5283   15.6932 C   0  0  0  0  0  0  0  0  0  0  0  0
   -7.6081  -19.7595   16.2812 C   0  0  0  0  0  0  0  0  0  0  0  0
   -7.2311  -20.1592   17.5755 C   0  0  0  0  0  0  0  0  0  0  0  0
   -6.4157  -19.3167   18.2951 C   0  0  0  0  0  0  0  0  0  0  0  0
   -6.0127  -18.1228   17.8115 N   0  0  0  0  0  0  0  0  0  0  0  0
   -6.3948  -17.7678   16.5395 C   0  0  0  0  0  0  0  0  0  0  0  0
   -9.1773  -10.9327   11.2587 H   0  0  0  0  0  0  0  0  0  0  0  0
   -7.8665   -9.3260    9.8947 H   0  0  0  0  0  0  0  0  0  0  0  0
   -5.4858   -9.7524    9.3887 H   0  0  0  0  0  0  0  0  0  0  0  0
   -4.4213  -11.8790   10.1365 H   0  0  0  0  0  0  0  0  0  0  0  0
   -5.7010  -18.2637   12.3984 H   0  0  0  0  0  0  0  0  0  0  0  0
   -6.1786  -16.9197   11.5127 H   0  0  0  0  0  0  0  0  0  0  0  0
   -8.4396  -17.5722   11.0537 H   0  0  0  0  0  0  0  0  0  0  0  0
   -7.2795  -18.7706   10.5007 H   0  0  0  0  0  0  0  0  0  0  0  0
   -9.3103  -19.5571   11.7183 H   0  0  0  0  0  0  0  0  0  0  0  0
   -8.9878  -19.7500   14.0786 H   0  0  0  0  0  0  0  0  0  0  0  0
   -9.4102  -18.1458   13.5630 H   0  0  0  0  0  0  0  0  0  0  0  0
   -6.4330  -18.9769   13.8775 H   0  0  0  0  0  0  0  0  0  0  0  0
   -8.1676  -20.4955   15.7101 H   0  0  0  0  0  0  0  0  0  0  0  0
   -7.5510  -21.1093   17.9881 H   0  0  0  0  0  0  0  0  0  0  0  0
   -6.0843  -19.5582   19.3003 H   0  0  0  0  0  0  0  0  0  0  0  0
   -5.9570  -16.8361   16.1956 H   0  0  0  0  0  0  0  0  0  0  0  0
  1  2  2  0
  2  3  1  0
  3  4  2  0
  4  5  1  0
  5  6  2  0
  6  7  1  0
  7  8  2  0
  8  9  1  0
  9 10  2  0
 10 11  1  0
  2 12  1  0
 12 13  1  0
 13 14  1  0
 14 15  1  0
 15 16  1  0
 16 17  1  0
 17 18  1  0
 18 19  2  0
 19 20  1  0
 20 21  2  0
 21 22  1  0
 22 23  2  0
 11  3  1  0
 17 12  1  0
 23 18  1  0
 10  5  1  0
  6 24  1  0
  7 25  1  0
  8 26  1  0
  9 27  1  0
 13 28  1  0
 13 29  1  0
 14 30  1  0
 14 31  1  0
 15 32  1  0
 16 33  1  0
 16 34  1  0
 17 35  1  0
 19 36  1  0
 20 37  1  0
 21 38  1  0
 23 39  1  0
M  END
>  <Energy>  (1204) 
230.78208753236211

>  <compound_id>  (1204) 
6700

>  <target_id>  (1204) 
1

>  <reference_id>  (1204) 
69

>  <inspiration_ids>  (1204) 
[69, 82]

>  <energy_score>  (1204) 
4.2499600856122015

>  <distance_score>  (1204) 
13.90385515987169

>  <path>  (1204) 
/opt/xchem-fragalysis-2/maxwin/BulkDock/SCRATCH/511020/C6700-P69/C6700-P69.minimised.mol

>  <scratch_subdir>  (1204) 
/opt/xchem-fragalysis-2/maxwin/BulkDock/SCRATCH/511020/C6700-P69

>  <fragmenstein_runtime>  (1204) 
30.80478286743164

>  <fragmenstein_outcome>  (1204) 
too moved

>  <fragmenstein_mode>  (1204) 
expansion

>  <fragmenstein_error>  (1204) 


$$$$
C6700-P82
     RDKit          3D

 39 42  0  0  0  0  0  0  0  0999 V2000
   -8.2983  -10.0053   19.1190 O   0  0  0  0  0  0  0  0  0  0  0  0
   -7.4531  -10.8446   18.8440 C   0  0  0  0  0  0  0  0  0  0  0  0
   -6.8313  -10.5525   17.1278 C   0  0  0  0  0  0  0  0  0  0  0  0
   -5.6944  -10.4336   16.3818 N   0  0  0  0  0  0  0  0  0  0  0  0
   -5.7485   -9.4834   15.1337 C   0  0  0  0  0  0  0  0  0  0  0  0
   -5.3614   -9.6147   13.7575 C   0  0  0  0  0  0  0  0  0  0  0  0
   -5.3060   -8.5105   12.8758 C   0  0  0  0  0  0  0  0  0  0  0  0
   -5.5849   -7.2361   13.3347 C   0  0  0  0  0  0  0  0  0  0  0  0
   -5.9783   -7.0685   14.6565 C   0  0  0  0  0  0  0  0  0  0  0  0
   -6.0678   -8.2154   15.4801 C   0  0  0  0  0  0  0  0  0  0  0  0
   -6.5398   -8.3481   17.0692 S   0  0  0  0  0  0  0  0  0  0  0  0
   -6.7357  -12.0467   19.9438 N   0  0  0  0  0  0  0  0  0  0  0  0
   -7.4818  -13.1987   19.8769 C   0  0  0  0  0  0  0  0  0  0  0  0
   -8.9640  -13.3852   19.8171 C   0  0  0  0  0  0  0  0  0  0  0  0
   -9.6060  -12.9931   21.2165 N   0  0  0  0  0  0  0  0  0  0  0  0
   -8.7173  -12.1102   22.3641 C   0  0  0  0  0  0  0  0  0  0  0  0
   -6.9439  -12.2577   21.9855 C   0  0  0  0  0  0  0  0  0  0  0  0
   -6.0749  -13.2264   23.5183 C   0  0  0  0  0  0  0  0  0  0  0  0
   -6.8085  -14.7880   24.2794 C   0  0  0  0  0  0  0  0  0  0  0  0
   -7.1563  -15.0165   25.9378 C   0  0  0  0  0  0  0  0  0  0  0  0
   -7.0060  -13.8562   26.7541 C   0  0  0  0  0  0  0  0  0  0  0  0
   -6.5890  -12.5183   26.2558 N   0  0  0  0  0  0  0  0  0  0  0  0
   -6.2080  -12.1648   24.7943 C   0  0  0  0  0  0  0  0  0  0  0  0
   -5.0730  -10.5742   13.3497 H   0  0  0  0  0  0  0  0  0  0  0  0
   -5.0057   -8.6668   11.8420 H   0  0  0  0  0  0  0  0  0  0  0  0
   -5.5095   -6.3787   12.6734 H   0  0  0  0  0  0  0  0  0  0  0  0
   -6.2312   -6.0870   15.0474 H   0  0  0  0  0  0  0  0  0  0  0  0
   -7.5082  -13.1208   18.7924 H   0  0  0  0  0  0  0  0  0  0  0  0
   -7.0044  -13.9195   20.3000 H   0  0  0  0  0  0  0  0  0  0  0  0
   -9.0616  -14.4138   19.4808 H   0  0  0  0  0  0  0  0  0  0  0  0
   -9.3924  -12.7676   19.0086 H   0  0  0  0  0  0  0  0  0  0  0  0
  -10.4821  -13.4517   21.4633 H   0  0  0  0  0  0  0  0  0  0  0  0
   -8.1827  -12.7290   22.8785 H   0  0  0  0  0  0  0  0  0  0  0  0
   -9.1804  -11.2497   22.8933 H   0  0  0  0  0  0  0  0  0  0  0  0
   -6.8479  -11.4214   22.6720 H   0  0  0  0  0  0  0  0  0  0  0  0
   -7.8704  -14.8104   24.6214 H   0  0  0  0  0  0  0  0  0  0  0  0
   -7.4747  -15.9834   26.3057 H   0  0  0  0  0  0  0  0  0  0  0  0
   -7.1837  -13.8919   27.8235 H   0  0  0  0  0  0  0  0  0  0  0  0
   -6.5307  -11.1560   24.6419 H   0  0  0  0  0  0  0  0  0  0  0  0
  1  2  2  0
  2  3  1  0
  3  4  2  0
  4  5  1  0
  5  6  2  0
  6  7  1  0
  7  8  2  0
  8  9  1  0
  9 10  2  0
 10 11  1  0
  2 12  1  0
 12 13  1  0
 13 14  1  0
 14 15  1  0
 15 16  1  0
 16 17  1  0
 17 18  1  0
 18 19  2  0
 19 20  1  0
 20 21  2  0
 21 22  1  0
 22 23  2  0
 11  3  1  0
 17 12  1  0
 23 18  1  0
 10  5  1  0
  6 24  1  0
  7 25  1  0
  8 26  1  0
  9 27  1  0
 13 28  1  0
 13 29  1  0
 14 30  1  0
 14 31  1  0
 15 32  1  0
 16 33  1  0
 16 34  1  0
 17 35  1  0
 19 36  1  0
 20 37  1  0
 21 38  1  0
 23 39  1  0
M  END
>  <Energy>  (1205) 
929.07763462859032

>  <compound_id>  (1205) 
6700

>  <target_id>  (1205) 
1

>  <reference_id>  (1205) 
82

>  <inspiration_ids>  (1205) 
[69, 82]

>  <energy_score>  (1205) 
702.5455071818228

>  <distance_score>  (1205) 
12.090350459404783

>  <path>  (1205) 
/opt/xchem-fragalysis-2/maxwin/BulkDock/SCRATCH/511020/C6700-P82/C6700-P82.minimised.mol

>  <scratch_subdir>  (1205) 
/opt/xchem-fragalysis-2/maxwin/BulkDock/SCRATCH/511020/C6700-P82

>  <fragmenstein_runtime>  (1205) 
15.638265609741211

>  <fragmenstein_outcome>  (1205) 
too moved

>  <fragmenstein_mode>  (1205) 
expansion

>  <fragmenstein_error>  (1205) 


$$$$
C52437-P69
     RDKit          3D

 41 44  0  0  0  0  0  0  0  0999 V2000
   -7.6882  -16.1226   25.2404 O   0  0  0  0  0  0  0  0  0  0  0  0
   -8.8041  -16.0570   25.3366 C   0  0  0  0  0  0  0  0  0  0  0  0
   -9.6599  -15.0660   23.8921 N   0  0  0  0  0  0  0  0  0  0  0  0
   -8.8901  -14.0091   22.3032 C   0  0  0  0  0  0  0  0  0  0  0  0
   -9.1563  -13.0733   20.4479 C   0  0  0  0  0  0  0  0  0  0  0  0
   -9.3869  -11.6726   19.4541 N   0  0  0  0  0  0  0  0  0  0  0  0
   -8.7496   -9.8668   19.4101 C   0  0  0  0  0  0  0  0  0  0  0  0
   -8.8977   -8.1147   19.6602 C   0  0  0  0  0  0  0  0  0  0  0  0
   -8.1270   -7.0705   18.8313 C   0  0  0  0  0  0  0  0  0  0  0  0
   -7.2726   -7.5885   17.5688 C   0  0  0  0  0  0  0  0  0  0  0  0
   -7.0419   -9.1978   17.4480 C   0  0  0  0  0  0  0  0  0  0  0  0
   -7.5530  -10.3562   18.8406 C   0  0  0  0  0  0  0  0  0  0  0  0
   -7.7071  -12.4563   18.8708 S   0  0  0  0  0  0  0  0  0  0  0  0
  -10.0498  -16.8246   26.6474 N   0  0  0  0  0  0  0  0  0  0  0  0
   -9.9832  -17.8484   28.3811 C   0  0  0  0  0  0  0  0  0  0  0  0
  -11.0398  -19.4069   29.5575 C   0  0  0  0  0  0  0  0  0  0  0  0
  -10.3057  -20.9024   29.1101 N   0  0  0  0  0  0  0  0  0  0  0  0
  -11.0947  -21.9832   28.7638 C   0  0  0  0  0  0  0  0  0  0  0  0
  -11.0848  -22.5440   27.5733 N   0  0  0  0  0  0  0  0  0  0  0  0
  -11.1188  -23.9063   27.6725 C   0  0  0  0  0  0  0  0  0  0  0  0
  -11.4250  -24.3730   28.9235 C   0  0  0  0  0  0  0  0  0  0  0  0
  -11.7632  -23.0261   29.9598 S   0  0  0  0  0  0  0  0  0  0  0  0
   -9.3846  -20.2916   27.8390 C   0  0  0  0  0  0  0  0  0  0  0  0
   -9.3370  -18.1175   27.9961 C   0  0  0  0  0  0  0  0  0  0  0  0
  -10.6623  -15.1264   24.0102 H   0  0  0  0  0  0  0  0  0  0  0  0
   -8.4535  -13.1683   22.8581 H   0  0  0  0  0  0  0  0  0  0  0  0
   -8.0987  -14.7137   22.0200 H   0  0  0  0  0  0  0  0  0  0  0  0
   -9.7624   -7.7280   20.2075 H   0  0  0  0  0  0  0  0  0  0  0  0
   -8.2951   -6.0046   18.9688 H   0  0  0  0  0  0  0  0  0  0  0  0
   -6.8229   -6.8815   16.8770 H   0  0  0  0  0  0  0  0  0  0  0  0
   -6.4679   -9.7400   16.6869 H   0  0  0  0  0  0  0  0  0  0  0  0
   -9.8782  -16.8605   29.1145 H   0  0  0  0  0  0  0  0  0  0  0  0
  -11.0990  -17.3905   28.4645 H   0  0  0  0  0  0  0  0  0  0  0  0
  -10.7580  -19.8499   30.5424 H   0  0  0  0  0  0  0  0  0  0  0  0
  -12.1124  -19.5812   29.2782 H   0  0  0  0  0  0  0  0  0  0  0  0
  -10.9403  -24.5119   26.7931 H   0  0  0  0  0  0  0  0  0  0  0  0
  -11.5224  -25.4025   29.2348 H   0  0  0  0  0  0  0  0  0  0  0  0
  -10.0575  -20.6691   27.0434 H   0  0  0  0  0  0  0  0  0  0  0  0
   -8.3295  -20.8491   27.5996 H   0  0  0  0  0  0  0  0  0  0  0  0
   -8.2584  -17.8480   28.6684 H   0  0  0  0  0  0  0  0  0  0  0  0
   -8.3694  -17.8777   27.3438 H   0  0  0  0  0  0  0  0  0  0  0  0
  1  2  2  0
  2  3  1  0
  3  4  1  0
  4  5  1  0
  5  6  2  0
  6  7  1  0
  7  8  2  0
  8  9  1  0
  9 10  2  0
 10 11  1  0
 11 12  2  0
 12 13  1  0
  2 14  1  0
 14 15  1  0
 15 16  1  0
 16 17  1  0
 17 18  1  0
 18 19  2  0
 19 20  1  0
 20 21  2  0
 21 22  1  0
 17 23  1  0
 23 24  1  0
 13  5  1  0
 24 14  1  0
 12  7  1  0
 22 18  1  0
  3 25  1  0
  4 26  1  0
  4 27  1  0
  8 28  1  0
  9 29  1  0
 10 30  1  0
 11 31  1  0
 15 32  1  0
 15 33  1  0
 16 34  1  0
 16 35  1  0
 20 36  1  0
 21 37  1  0
 23 38  1  0
 23 39  1  0
 24 40  1  0
 24 41  1  0
M  END
>  <Energy>  (1206) 
1934.8365812019545

>  <compound_id>  (1206) 
52437

>  <target_id>  (1206) 
1

>  <reference_id>  (1206) 
69

>  <inspiration_ids>  (1206) 
[69, 82]

>  <energy_score>  (1206) 
1841.4787830121902

>  <distance_score>  (1206) 
11.651529116133876

>  <path>  (1206) 
/opt/xchem-fragalysis-2/maxwin/BulkDock/SCRATCH/511020/C52437-P69/C52437-P69.minimised.mol

>  <scratch_subdir>  (1206) 
/opt/xchem-fragalysis-2/maxwin/BulkDock/SCRATCH/511020/C52437-P69

>  <fragmenstein_runtime>  (1206) 
31.925418376922607

>  <fragmenstein_outcome>  (1206) 
too moved

>  <fragmenstein_mode>  (1206) 
expansion

>  <fragmenstein_error>  (1206) 


$$$$
C52437-P82
     RDKit          3D

 41 44  0  0  0  0  0  0  0  0999 V2000
   -4.1590  -19.0534   10.5395 O   0  0  0  0  0  0  0  0  0  0  0  0
   -4.4349  -18.0801   11.0499 C   0  0  0  0  0  0  0  0  0  0  0  0
   -4.1229  -16.6881   10.6763 N   0  0  0  0  0  0  0  0  0  0  0  0
   -3.2864  -16.1577    9.5972 C   0  0  0  0  0  0  0  0  0  0  0  0
   -3.7245  -15.0000    8.6944 C   0  0  0  0  0  0  0  0  0  0  0  0
   -2.8936  -14.0335    8.3135 N   0  0  0  0  0  0  0  0  0  0  0  0
   -3.4600  -13.2272    7.3358 C   0  0  0  0  0  0  0  0  0  0  0  0
   -2.8172  -12.1849    6.6371 C   0  0  0  0  0  0  0  0  0  0  0  0
   -3.4823  -11.5419    5.5901 C   0  0  0  0  0  0  0  0  0  0  0  0
   -4.8049  -11.8360    5.3068 C   0  0  0  0  0  0  0  0  0  0  0  0
   -5.4735  -12.8382    6.0164 C   0  0  0  0  0  0  0  0  0  0  0  0
   -4.7700  -13.5494    7.0026 C   0  0  0  0  0  0  0  0  0  0  0  0
   -5.2650  -14.9248    7.9329 S   0  0  0  0  0  0  0  0  0  0  0  0
   -5.3569  -17.7395   12.4410 N   0  0  0  0  0  0  0  0  0  0  0  0
   -5.8036  -18.7273   13.2480 C   0  0  0  0  0  0  0  0  0  0  0  0
   -4.6028  -18.9649   14.7097 C   0  0  0  0  0  0  0  0  0  0  0  0
   -5.3770  -18.5115   15.8566 N   0  0  0  0  0  0  0  0  0  0  0  0
   -5.2267  -19.1435   17.0481 C   0  0  0  0  0  0  0  0  0  0  0  0
   -4.1922  -19.9088   17.3286 N   0  0  0  0  0  0  0  0  0  0  0  0
   -4.2735  -20.4041   18.6127 C   0  0  0  0  0  0  0  0  0  0  0  0
   -5.3846  -20.0201   19.3244 C   0  0  0  0  0  0  0  0  0  0  0  0
   -6.3578  -19.0030   18.3556 S   0  0  0  0  0  0  0  0  0  0  0  0
   -6.6369  -18.1234   15.3014 C   0  0  0  0  0  0  0  0  0  0  0  0
   -6.4684  -18.7636   13.6654 C   0  0  0  0  0  0  0  0  0  0  0  0
   -4.4560  -16.0605   11.4038 H   0  0  0  0  0  0  0  0  0  0  0  0
   -3.0354  -17.0046    8.9470 H   0  0  0  0  0  0  0  0  0  0  0  0
   -2.3512  -15.8573   10.0850 H   0  0  0  0  0  0  0  0  0  0  0  0
   -1.7765  -11.9631    6.8520 H   0  0  0  0  0  0  0  0  0  0  0  0
   -2.9353  -10.8550    4.9510 H   0  0  0  0  0  0  0  0  0  0  0  0
   -5.2933  -11.3349    4.4755 H   0  0  0  0  0  0  0  0  0  0  0  0
   -6.4819  -13.1381    5.7532 H   0  0  0  0  0  0  0  0  0  0  0  0
   -6.0161  -19.6267   12.2642 H   0  0  0  0  0  0  0  0  0  0  0  0
   -4.8306  -19.3766   12.9160 H   0  0  0  0  0  0  0  0  0  0  0  0
   -4.3761  -20.0407   14.7557 H   0  0  0  0  0  0  0  0  0  0  0  0
   -3.7176  -18.3455   14.5227 H   0  0  0  0  0  0  0  0  0  0  0  0
   -3.4843  -21.0472   18.9819 H   0  0  0  0  0  0  0  0  0  0  0  0
   -5.6591  -20.2782   20.3361 H   0  0  0  0  0  0  0  0  0  0  0  0
   -6.7595  -17.0377   15.2405 H   0  0  0  0  0  0  0  0  0  0  0  0
   -7.5178  -18.6076   15.7358 H   0  0  0  0  0  0  0  0  0  0  0  0
   -7.5601  -18.3212   13.3147 H   0  0  0  0  0  0  0  0  0  0  0  0
   -6.9022  -19.9818   13.7123 H   0  0  0  0  0  0  0  0  0  0  0  0
  1  2  2  0
  2  3  1  0
  3  4  1  0
  4  5  1  0
  5  6  2  0
  6  7  1  0
  7  8  2  0
  8  9  1  0
  9 10  2  0
 10 11  1  0
 11 12  2  0
 12 13  1  0
  2 14  1  0
 14 15  1  0
 15 16  1  0
 16 17  1  0
 17 18  1  0
 18 19  2  0
 19 20  1  0
 20 21  2  0
 21 22  1  0
 17 23  1  0
 23 24  1  0
 13  5  1  0
 24 14  1  0
 12  7  1  0
 22 18  1  0
  3 25  1  0
  4 26  1  0
  4 27  1  0
  8 28  1  0
  9 29  1  0
 10 30  1  0
 11 31  1  0
 15 32  1  0
 15 33  1  0
 16 34  1  0
 16 35  1  0
 20 36  1  0
 21 37  1  0
 23 38  1  0
 23 39  1  0
 24 40  1  0
 24 41  1  0
M  END
>  <Energy>  (1207) 
748.43884015064134

>  <compound_id>  (1207) 
52437

>  <target_id>  (1207) 
1

>  <reference_id>  (1207) 
82

>  <inspiration_ids>  (1207) 
[69, 82]

>  <energy_score>  (1207) 
655.0810419608563

>  <distance_score>  (1207) 
16.49444540093195

>  <path>  (1207) 
/opt/xchem-fragalysis-2/maxwin/BulkDock/SCRATCH/511020/C52437-P82/C52437-P82.minimised.mol

>  <scratch_subdir>  (1207) 
/opt/xchem-fragalysis-2/maxwin/BulkDock/SCRATCH/511020/C52437-P82

>  <fragmenstein_runtime>  (1207) 
49.00631308555603

>  <fragmenstein_outcome>  (1207) 
too moved

>  <fragmenstein_mode>  (1207) 
expansion

>  <fragmenstein_error>  (1207) 


$$$$
C11046-P69
     RDKit          3D

 44 47  0  0  0  0  0  0  0  0999 V2000
   -7.9540  -16.8178   14.5195 O   0  0  0  0  0  0  0  0  0  0  0  0
   -7.6916  -15.9229   15.3026 C   0  0  0  0  0  0  0  0  0  0  0  0
   -7.7614  -14.4456   15.1349 N   0  0  0  0  0  0  0  0  0  0  0  0
   -8.3743  -13.4225   13.7918 C   0  0  0  0  0  0  0  0  0  0  0  0
   -9.3723  -13.0154   12.7452 C   0  0  0  0  0  0  0  0  0  0  0  0
  -10.3470  -13.6560   12.1117 N   0  0  0  0  0  0  0  0  0  0  0  0
  -10.9852  -12.8614   11.1567 C   0  0  0  0  0  0  0  0  0  0  0  0
  -11.8354  -13.3191   10.1257 C   0  0  0  0  0  0  0  0  0  0  0  0
  -12.4434  -12.4231    9.2344 C   0  0  0  0  0  0  0  0  0  0  0  0
  -12.2471  -11.0642    9.3723 C   0  0  0  0  0  0  0  0  0  0  0  0
  -11.4381  -10.6000   10.4006 C   0  0  0  0  0  0  0  0  0  0  0  0
  -10.7934  -11.4917   11.2722 C   0  0  0  0  0  0  0  0  0  0  0  0
   -9.4880  -11.1207   12.6000 S   0  0  0  0  0  0  0  0  0  0  0  0
   -7.2174  -15.9855   17.1491 N   0  0  0  0  0  0  0  0  0  0  0  0
   -8.2800  -15.9182   18.1487 C   0  0  0  0  0  0  0  0  0  0  0  0
   -8.5422  -15.6677   19.9837 C   0  0  0  0  0  0  0  0  0  0  0  0
   -7.4343  -16.6351   21.2783 N   0  0  0  0  0  0  0  0  0  0  0  0
   -7.9579  -17.9311   22.4352 C   0  0  0  0  0  0  0  0  0  0  0  0
   -7.1384  -18.9778   22.5735 C   0  0  0  0  0  0  0  0  0  0  0  0
   -8.0064  -20.2529   22.6755 C   0  0  0  0  0  0  0  0  0  0  0  0
   -9.4929  -20.9151   22.9712 C   0  0  0  0  0  0  0  0  0  0  0  0
  -10.2588  -19.9408   23.4587 C   0  0  0  0  0  0  0  0  0  0  0  0
   -9.4562  -18.4244   23.2958 N   0  0  0  0  0  0  0  0  0  0  0  0
   -6.4982  -17.5142   20.1389 C   0  0  0  0  0  0  0  0  0  0  0  0
   -6.8777  -17.4630   18.3335 C   0  0  0  0  0  0  0  0  0  0  0  0
   -7.3812  -13.9977   15.9755 H   0  0  0  0  0  0  0  0  0  0  0  0
   -8.9687  -12.8491   14.5339 H   0  0  0  0  0  0  0  0  0  0  0  0
   -7.5287  -12.7909   13.4563 H   0  0  0  0  0  0  0  0  0  0  0  0
  -12.0026  -14.3879   10.0244 H   0  0  0  0  0  0  0  0  0  0  0  0
  -13.0739  -12.8078    8.4364 H   0  0  0  0  0  0  0  0  0  0  0  0
  -12.7043  -10.3725    8.6710 H   0  0  0  0  0  0  0  0  0  0  0  0
  -11.2113   -9.5701   10.4580 H   0  0  0  0  0  0  0  0  0  0  0  0
   -9.1849  -16.1602   17.7083 H   0  0  0  0  0  0  0  0  0  0  0  0
   -8.0620  -14.8886   18.1603 H   0  0  0  0  0  0  0  0  0  0  0  0
   -8.5877  -14.5300   20.0706 H   0  0  0  0  0  0  0  0  0  0  0  0
   -9.5759  -15.9472   20.0028 H   0  0  0  0  0  0  0  0  0  0  0  0
   -6.1716  -19.0087   22.1345 H   0  0  0  0  0  0  0  0  0  0  0  0
   -8.0019  -20.4318   21.5597 H   0  0  0  0  0  0  0  0  0  0  0  0
   -9.7460  -21.9552   22.8860 H   0  0  0  0  0  0  0  0  0  0  0  0
  -11.1578  -20.0252   24.0521 H   0  0  0  0  0  0  0  0  0  0  0  0
   -5.4493  -17.3428   20.3478 H   0  0  0  0  0  0  0  0  0  0  0  0
   -6.6424  -18.5865   20.2987 H   0  0  0  0  0  0  0  0  0  0  0  0
   -7.3437  -18.3512   17.9432 H   0  0  0  0  0  0  0  0  0  0  0  0
   -5.7438  -17.5940   18.4106 H   0  0  0  0  0  0  0  0  0  0  0  0
  1  2  2  0
  2  3  1  0
  3  4  1  0
  4  5  1  0
  5  6  2  0
  6  7  1  0
  7  8  2  0
  8  9  1  0
  9 10  2  0
 10 11  1  0
 11 12  2  0
 12 13  1  0
  2 14  1  0
 14 15  1  0
 15 16  1  0
 16 17  1  0
 17 18  1  0
 18 19  2  0
 19 20  1  0
 20 21  2  0
 21 22  1  0
 22 23  2  0
 17 24  1  0
 24 25  1  0
 13  5  1  0
 25 14  1  0
 12  7  1  0
 23 18  1  0
  3 26  1  0
  4 27  1  0
  4 28  1  0
  8 29  1  0
  9 30  1  0
 10 31  1  0
 11 32  1  0
 15 33  1  0
 15 34  1  0
 16 35  1  0
 16 36  1  0
 19 37  1  0
 20 38  1  0
 21 39  1  0
 22 40  1  0
 24 41  1  0
 24 42  1  0
 25 43  1  0
 25 44  1  0
M  END
>  <Energy>  (1208) 
768.13668944099413

>  <compound_id>  (1208) 
11046

>  <target_id>  (1208) 
1

>  <reference_id>  (1208) 
69

>  <inspiration_ids>  (1208) 
[69, 82]

>  <energy_score>  (1208) 
717.975683786992

>  <distance_score>  (1208) 
11.74026982230189

>  <path>  (1208) 
/opt/xchem-fragalysis-2/maxwin/BulkDock/SCRATCH/511020/C11046-P69/C11046-P69.minimised.mol

>  <scratch_subdir>  (1208) 
/opt/xchem-fragalysis-2/maxwin/BulkDock/SCRATCH/511020/C11046-P69

>  <fragmenstein_runtime>  (1208) 
41.74697518348694

>  <fragmenstein_outcome>  (1208) 
too moved

>  <fragmenstein_mode>  (1208) 
expansion

>  <fragmenstein_error>  (1208) 


$$$$
C11046-P82
     RDKit          3D

 44 47  0  0  0  0  0  0  0  0999 V2000
   -7.4268  -12.9506   19.8522 O   0  0  0  0  0  0  0  0  0  0  0  0
   -7.9983  -13.4733   19.0871 C   0  0  0  0  0  0  0  0  0  0  0  0
   -8.0157  -12.5689   17.5615 N   0  0  0  0  0  0  0  0  0  0  0  0
   -7.1260  -10.9475   16.9760 C   0  0  0  0  0  0  0  0  0  0  0  0
   -7.2199   -9.9955   15.1291 C   0  0  0  0  0  0  0  0  0  0  0  0
   -6.2451  -10.1906   13.8879 N   0  0  0  0  0  0  0  0  0  0  0  0
   -5.9461   -8.7728   13.1280 C   0  0  0  0  0  0  0  0  0  0  0  0
   -4.8529   -8.2224   12.3840 C   0  0  0  0  0  0  0  0  0  0  0  0
   -4.6881   -6.8327   12.3635 C   0  0  0  0  0  0  0  0  0  0  0  0
   -5.5390   -6.0275   13.1206 C   0  0  0  0  0  0  0  0  0  0  0  0
   -6.6980   -6.5209   13.7258 C   0  0  0  0  0  0  0  0  0  0  0  0
   -6.9416   -7.9278   13.5697 C   0  0  0  0  0  0  0  0  0  0  0  0
   -8.4374   -9.3007   13.9444 S   0  0  0  0  0  0  0  0  0  0  0  0
   -8.7232  -15.2149   19.2609 N   0  0  0  0  0  0  0  0  0  0  0  0
  -10.5783  -15.8429   19.9228 C   0  0  0  0  0  0  0  0  0  0  0  0
  -11.3844  -15.7963   22.0692 C   0  0  0  0  0  0  0  0  0  0  0  0
  -10.0679  -16.5825   23.6159 N   0  0  0  0  0  0  0  0  0  0  0  0
  -10.8568  -17.2005   24.8632 C   0  0  0  0  0  0  0  0  0  0  0  0
  -12.1645  -16.5866   25.0643 C   0  0  0  0  0  0  0  0  0  0  0  0
  -13.3218  -17.3172   25.0909 C   0  0  0  0  0  0  0  0  0  0  0  0
  -13.1226  -18.6612   24.9676 C   0  0  0  0  0  0  0  0  0  0  0  0
  -11.7921  -19.2216   25.2482 C   0  0  0  0  0  0  0  0  0  0  0  0
  -10.6821  -18.4420   25.3521 N   0  0  0  0  0  0  0  0  0  0  0  0
   -8.2217  -16.9481   22.5519 C   0  0  0  0  0  0  0  0  0  0  0  0
   -8.3865  -16.3438   20.7275 C   0  0  0  0  0  0  0  0  0  0  0  0
   -8.4304  -13.0859   16.9367 H   0  0  0  0  0  0  0  0  0  0  0  0
   -7.7911  -11.5334   16.2781 H   0  0  0  0  0  0  0  0  0  0  0  0
   -6.0429  -11.0625   17.1175 H   0  0  0  0  0  0  0  0  0  0  0  0
   -4.0758   -8.8580   11.9779 H   0  0  0  0  0  0  0  0  0  0  0  0
   -3.8024   -6.4163   11.8934 H   0  0  0  0  0  0  0  0  0  0  0  0
   -5.2746   -5.0115   13.3572 H   0  0  0  0  0  0  0  0  0  0  0  0
   -7.3488   -5.8755   14.3102 H   0  0  0  0  0  0  0  0  0  0  0  0
  -11.1113  -16.5901   19.2600 H   0  0  0  0  0  0  0  0  0  0  0  0
   -9.9478  -16.5794   20.0625 H   0  0  0  0  0  0  0  0  0  0  0  0
  -11.3178  -14.7758   22.4943 H   0  0  0  0  0  0  0  0  0  0  0  0
  -12.3935  -16.2174   22.2434 H   0  0  0  0  0  0  0  0  0  0  0  0
  -12.3631  -15.5400   24.9297 H   0  0  0  0  0  0  0  0  0  0  0  0
  -14.3034  -16.8656   25.0669 H   0  0  0  0  0  0  0  0  0  0  0  0
  -13.9997  -19.2797   24.8726 H   0  0  0  0  0  0  0  0  0  0  0  0
  -11.6488  -20.2893   25.3380 H   0  0  0  0  0  0  0  0  0  0  0  0
   -8.1617  -18.0458   22.3234 H   0  0  0  0  0  0  0  0  0  0  0  0
   -7.3346  -16.8649   23.1559 H   0  0  0  0  0  0  0  0  0  0  0  0
   -7.3102  -16.7345   20.5037 H   0  0  0  0  0  0  0  0  0  0  0  0
   -7.8852  -15.5228   20.9689 H   0  0  0  0  0  0  0  0  0  0  0  0
  1  2  2  0
  2  3  1  0
  3  4  1  0
  4  5  1  0
  5  6  2  0
  6  7  1  0
  7  8  2  0
  8  9  1  0
  9 10  2  0
 10 11  1  0
 11 12  2  0
 12 13  1  0
  2 14  1  0
 14 15  1  0
 15 16  1  0
 16 17  1  0
 17 18  1  0
 18 19  2  0
 19 20  1  0
 20 21  2  0
 21 22  1  0
 22 23  2  0
 17 24  1  0
 24 25  1  0
 13  5  1  0
 25 14  1  0
 12  7  1  0
 23 18  1  0
  3 26  1  0
  4 27  1  0
  4 28  1  0
  8 29  1  0
  9 30  1  0
 10 31  1  0
 11 32  1  0
 15 33  1  0
 15 34  1  0
 16 35  1  0
 16 36  1  0
 19 37  1  0
 20 38  1  0
 21 39  1  0
 22 40  1  0
 24 41  1  0
 24 42  1  0
 25 43  1  0
 25 44  1  0
M  END
>  <Energy>  (1209) 
1396.5935955258788

>  <compound_id>  (1209) 
11046

>  <target_id>  (1209) 
1

>  <reference_id>  (1209) 
82

>  <inspiration_ids>  (1209) 
[69, 82]

>  <energy_score>  (1209) 
1346.4325898719128

>  <distance_score>  (1209) 
9.61630785424508

>  <path>  (1209) 
/opt/xchem-fragalysis-2/maxwin/BulkDock/SCRATCH/511020/C11046-P82/C11046-P82.minimised.mol

>  <scratch_subdir>  (1209) 
/opt/xchem-fragalysis-2/maxwin/BulkDock/SCRATCH/511020/C11046-P82

>  <fragmenstein_runtime>  (1209) 
30.55048179626465

>  <fragmenstein_outcome>  (1209) 
too moved

>  <fragmenstein_mode>  (1209) 
expansion

>  <fragmenstein_error>  (1209) 


$$$$
C52438-P69
     RDKit          3D

 43 46  0  0  0  0  0  0  0  0999 V2000
   -9.3037  -15.3072   19.6771 O   0  0  0  0  0  0  0  0  0  0  0  0
   -9.0749  -14.2378   20.1515 C   0  0  0  0  0  0  0  0  0  0  0  0
   -8.8440  -12.8282   19.0755 C   0  0  0  0  0  0  0  0  0  0  0  0
   -9.4576  -12.2497   17.8811 O   0  0  0  0  0  0  0  0  0  0  0  0
   -8.3628  -11.9705   16.5062 C   0  0  0  0  0  0  0  0  0  0  0  0
   -8.8108  -10.7896   14.9793 C   0  0  0  0  0  0  0  0  0  0  0  0
   -9.4671   -9.5441   14.9274 N   0  0  0  0  0  0  0  0  0  0  0  0
   -8.8244   -8.3060   14.2359 C   0  0  0  0  0  0  0  0  0  0  0  0
   -8.9632   -6.4814   14.4784 C   0  0  0  0  0  0  0  0  0  0  0  0
   -8.2708   -5.3262   13.5483 C   0  0  0  0  0  0  0  0  0  0  0  0
   -7.1958   -5.9434   12.4177 C   0  0  0  0  0  0  0  0  0  0  0  0
   -6.9535   -7.8784   12.1710 C   0  0  0  0  0  0  0  0  0  0  0  0
   -7.8688   -8.8670   13.3491 C   0  0  0  0  0  0  0  0  0  0  0  0
   -8.7045  -10.7795   13.3391 S   0  0  0  0  0  0  0  0  0  0  0  0
   -8.8426  -13.8434   21.5221 N   0  0  0  0  0  0  0  0  0  0  0  0
   -8.9598  -14.5170   22.6236 C   0  0  0  0  0  0  0  0  0  0  0  0
  -10.2038  -15.9454   22.2281 C   0  0  0  0  0  0  0  0  0  0  0  0
  -10.6596  -16.3321   23.5628 N   0  0  0  0  0  0  0  0  0  0  0  0
  -12.0000  -16.2289   23.7969 C   0  0  0  0  0  0  0  0  0  0  0  0
  -12.5281  -15.5564   24.7970 N   0  0  0  0  0  0  0  0  0  0  0  0
  -13.9084  -15.6125   24.7483 C   0  0  0  0  0  0  0  0  0  0  0  0
  -14.4356  -16.3775   23.7349 C   0  0  0  0  0  0  0  0  0  0  0  0
  -13.1675  -17.0377   22.7979 S   0  0  0  0  0  0  0  0  0  0  0  0
   -9.7645  -15.5592   24.3911 C   0  0  0  0  0  0  0  0  0  0  0  0
   -8.5911  -14.9399   23.1451 C   0  0  0  0  0  0  0  0  0  0  0  0
   -9.3722  -12.1835   19.6757 H   0  0  0  0  0  0  0  0  0  0  0  0
   -7.7897  -12.5794   19.0556 H   0  0  0  0  0  0  0  0  0  0  0  0
   -7.9859  -12.9723   16.4354 H   0  0  0  0  0  0  0  0  0  0  0  0
   -7.6254  -11.4632   17.1654 H   0  0  0  0  0  0  0  0  0  0  0  0
   -9.7872   -6.0028   15.0226 H   0  0  0  0  0  0  0  0  0  0  0  0
   -8.4635   -4.2824   13.7340 H   0  0  0  0  0  0  0  0  0  0  0  0
   -6.5186   -5.4445   11.7042 H   0  0  0  0  0  0  0  0  0  0  0  0
   -6.0871   -8.2023   11.5625 H   0  0  0  0  0  0  0  0  0  0  0  0
  -10.1239  -14.0430   22.6238 H   0  0  0  0  0  0  0  0  0  0  0  0
   -9.1413  -13.3763   23.3800 H   0  0  0  0  0  0  0  0  0  0  0  0
   -9.6442  -16.7556   21.7411 H   0  0  0  0  0  0  0  0  0  0  0  0
  -10.9803  -15.5496   21.5614 H   0  0  0  0  0  0  0  0  0  0  0  0
  -14.4881  -15.0792   25.4920 H   0  0  0  0  0  0  0  0  0  0  0  0
  -15.4731  -16.5776   23.5083 H   0  0  0  0  0  0  0  0  0  0  0  0
   -9.1886  -16.1816   25.0822 H   0  0  0  0  0  0  0  0  0  0  0  0
  -10.2005  -14.6917   24.9032 H   0  0  0  0  0  0  0  0  0  0  0  0
   -7.9197  -15.9435   22.8327 H   0  0  0  0  0  0  0  0  0  0  0  0
   -7.6642  -14.4610   23.8359 H   0  0  0  0  0  0  0  0  0  0  0  0
  1  2  2  0
  2  3  1  0
  3  4  1  0
  4  5  1  0
  5  6  1  0
  6  7  2  0
  7  8  1  0
  8  9  2  0
  9 10  1  0
 10 11  2  0
 11 12  1  0
 12 13  2  0
 13 14  1  0
  2 15  1  0
 15 16  1  0
 16 17  1  0
 17 18  1  0
 18 19  1  0
 19 20  2  0
 20 21  1  0
 21 22  2  0
 22 23  1  0
 18 24  1  0
 24 25  1  0
 14  6  1  0
 25 15  1  0
 13  8  1  0
 23 19  1  0
  3 26  1  0
  3 27  1  0
  5 28  1  0
  5 29  1  0
  9 30  1  0
 10 31  1  0
 11 32  1  0
 12 33  1  0
 16 34  1  0
 16 35  1  0
 17 36  1  0
 17 37  1  0
 21 38  1  0
 22 39  1  0
 24 40  1  0
 24 41  1  0
 25 42  1  0
 25 43  1  0
M  END
>  <Energy>  (1210) 
1378.1958727426111

>  <compound_id>  (1210) 
52438

>  <target_id>  (1210) 
1

>  <reference_id>  (1210) 
69

>  <inspiration_ids>  (1210) 
[69, 82]

>  <energy_score>  (1210) 
1143.6932062305198

>  <distance_score>  (1210) 
11.755092464865506

>  <path>  (1210) 
/opt/xchem-fragalysis-2/maxwin/BulkDock/SCRATCH/511020/C52438-P69/C52438-P69.minimised.mol

>  <scratch_subdir>  (1210) 
/opt/xchem-fragalysis-2/maxwin/BulkDock/SCRATCH/511020/C52438-P69

>  <fragmenstein_runtime>  (1210) 
32.03911733627319

>  <fragmenstein_outcome>  (1210) 
too moved

>  <fragmenstein_mode>  (1210) 
expansion

>  <fragmenstein_error>  (1210) 


$$$$
C52438-P82
     RDKit          3D

 43 46  0  0  0  0  0  0  0  0999 V2000
   -7.8192  -18.8228   14.9813 O   0  0  0  0  0  0  0  0  0  0  0  0
   -7.6971  -18.3314   16.0173 C   0  0  0  0  0  0  0  0  0  0  0  0
   -6.7488  -17.1014   16.2207 C   0  0  0  0  0  0  0  0  0  0  0  0
   -7.1609  -15.7501   15.9570 O   0  0  0  0  0  0  0  0  0  0  0  0
   -7.6375  -15.5090   14.6007 C   0  0  0  0  0  0  0  0  0  0  0  0
   -8.2075  -13.7970   13.9292 C   0  0  0  0  0  0  0  0  0  0  0  0
   -7.5340  -12.8316   13.1978 N   0  0  0  0  0  0  0  0  0  0  0  0
   -7.9945  -11.5526   13.5866 C   0  0  0  0  0  0  0  0  0  0  0  0
   -7.2930  -10.2361   13.7948 C   0  0  0  0  0  0  0  0  0  0  0  0
   -7.9386   -9.0709   13.7894 C   0  0  0  0  0  0  0  0  0  0  0  0
   -9.2318   -9.1145   13.9129 C   0  0  0  0  0  0  0  0  0  0  0  0
   -9.6771  -10.2811   14.3027 C   0  0  0  0  0  0  0  0  0  0  0  0
   -9.2069  -11.5537   14.0385 C   0  0  0  0  0  0  0  0  0  0  0  0
   -9.6273  -13.1642   14.1659 S   0  0  0  0  0  0  0  0  0  0  0  0
   -8.4167  -18.5954   17.4512 N   0  0  0  0  0  0  0  0  0  0  0  0
   -9.2624  -19.4899   17.9406 C   0  0  0  0  0  0  0  0  0  0  0  0
   -9.2966  -20.0777   19.7553 C   0  0  0  0  0  0  0  0  0  0  0  0
  -10.7111  -19.8746   20.0218 N   0  0  0  0  0  0  0  0  0  0  0  0
  -11.4692  -20.5166   20.9406 C   0  0  0  0  0  0  0  0  0  0  0  0
  -12.7893  -20.5053   20.8982 N   0  0  0  0  0  0  0  0  0  0  0  0
  -13.3179  -21.1263   22.0100 C   0  0  0  0  0  0  0  0  0  0  0  0
  -12.3985  -21.6636   22.8774 C   0  0  0  0  0  0  0  0  0  0  0  0
  -10.8260  -21.3755   22.2770 S   0  0  0  0  0  0  0  0  0  0  0  0
  -11.3134  -19.5951   18.7427 C   0  0  0  0  0  0  0  0  0  0  0  0
   -9.9230  -19.8234   17.6420 C   0  0  0  0  0  0  0  0  0  0  0  0
   -5.8532  -17.3018   15.6177 H   0  0  0  0  0  0  0  0  0  0  0  0
   -6.3971  -17.1454   17.2538 H   0  0  0  0  0  0  0  0  0  0  0  0
   -6.8270  -15.9486   14.0146 H   0  0  0  0  0  0  0  0  0  0  0  0
   -8.2684  -16.3152   14.2369 H   0  0  0  0  0  0  0  0  0  0  0  0
   -6.1976  -10.2564   13.7223 H   0  0  0  0  0  0  0  0  0  0  0  0
   -7.4558   -8.1466   13.8815 H   0  0  0  0  0  0  0  0  0  0  0  0
   -9.7836   -8.2566   14.1920 H   0  0  0  0  0  0  0  0  0  0  0  0
  -10.5604  -10.1762   14.8813 H   0  0  0  0  0  0  0  0  0  0  0  0
   -9.4016  -18.4348   18.6082 H   0  0  0  0  0  0  0  0  0  0  0  0
   -8.2070  -20.1380   18.0021 H   0  0  0  0  0  0  0  0  0  0  0  0
   -9.0018  -21.1349   19.7514 H   0  0  0  0  0  0  0  0  0  0  0  0
   -8.6244  -19.4384   20.3375 H   0  0  0  0  0  0  0  0  0  0  0  0
  -14.3906  -21.1482   22.1459 H   0  0  0  0  0  0  0  0  0  0  0  0
  -12.5708  -22.1801   23.8097 H   0  0  0  0  0  0  0  0  0  0  0  0
  -11.6761  -18.5646   18.6530 H   0  0  0  0  0  0  0  0  0  0  0  0
  -12.0707  -20.3194   18.4191 H   0  0  0  0  0  0  0  0  0  0  0  0
  -10.5217  -19.5338   16.6244 H   0  0  0  0  0  0  0  0  0  0  0  0
   -9.8213  -21.0183   17.2763 H   0  0  0  0  0  0  0  0  0  0  0  0
  1  2  2  0
  2  3  1  0
  3  4  1  0
  4  5  1  0
  5  6  1  0
  6  7  2  0
  7  8  1  0
  8  9  2  0
  9 10  1  0
 10 11  2  0
 11 12  1  0
 12 13  2  0
 13 14  1  0
  2 15  1  0
 15 16  1  0
 16 17  1  0
 17 18  1  0
 18 19  1  0
 19 20  2  0
 20 21  1  0
 21 22  2  0
 22 23  1  0
 18 24  1  0
 24 25  1  0
 14  6  1  0
 25 15  1  0
 13  8  1  0
 23 19  1  0
  3 26  1  0
  3 27  1  0
  5 28  1  0
  5 29  1  0
  9 30  1  0
 10 31  1  0
 11 32  1  0
 12 33  1  0
 16 34  1  0
 16 35  1  0
 17 36  1  0
 17 37  1  0
 21 38  1  0
 22 39  1  0
 24 40  1  0
 24 41  1  0
 25 42  1  0
 25 43  1  0
M  END
>  <Energy>  (1211) 
990.24022035864425

>  <compound_id>  (1211) 
52438

>  <target_id>  (1211) 
1

>  <reference_id>  (1211) 
82

>  <inspiration_ids>  (1211) 
[69, 82]

>  <energy_score>  (1211) 
755.7375538465586

>  <distance_score>  (1211) 
13.3668317586377

>  <path>  (1211) 
/opt/xchem-fragalysis-2/maxwin/BulkDock/SCRATCH/511020/C52438-P82/C52438-P82.minimised.mol

>  <scratch_subdir>  (1211) 
/opt/xchem-fragalysis-2/maxwin/BulkDock/SCRATCH/511020/C52438-P82

>  <fragmenstein_runtime>  (1211) 
25.69050168991089

>  <fragmenstein_outcome>  (1211) 
too moved

>  <fragmenstein_mode>  (1211) 
expansion

>  <fragmenstein_error>  (1211) 


$$$$
C11047-P69
     RDKit          3D

 41 44  0  0  0  0  0  0  0  0999 V2000
  -11.1840   -9.9729   14.0134 O   0  0  0  0  0  0  0  0  0  0  0  0
  -12.0240  -10.3928   14.7057 C   0  0  0  0  0  0  0  0  0  0  0  0
  -13.4294  -10.1025   14.7378 N   0  0  0  0  0  0  0  0  0  0  0  0
  -14.2132   -9.3115   13.8976 C   0  0  0  0  0  0  0  0  0  0  0  0
  -14.0459   -9.5886   12.5256 C   0  0  0  0  0  0  0  0  0  0  0  0
  -14.4089   -8.6938   11.5156 C   0  0  0  0  0  0  0  0  0  0  0  0
  -14.9139   -7.4449   11.8864 C   0  0  0  0  0  0  0  0  0  0  0  0
  -15.3460   -6.4707   11.0052 N   0  0  0  0  0  0  0  0  0  0  0  0
  -15.9266   -5.5209   11.7003 C   0  0  0  0  0  0  0  0  0  0  0  0
  -15.6601   -5.5449   13.3912 S   0  0  0  0  0  0  0  0  0  0  0  0
  -15.0323   -7.1447   13.2504 C   0  0  0  0  0  0  0  0  0  0  0  0
  -14.6838   -8.0583   14.2787 C   0  0  0  0  0  0  0  0  0  0  0  0
  -11.8624  -11.5383   15.7875 N   0  0  0  0  0  0  0  0  0  0  0  0
  -11.4021  -11.2784   17.6583 C   0  0  0  0  0  0  0  0  0  0  0  0
  -10.0501  -12.4580   18.7029 C   0  0  0  0  0  0  0  0  0  0  0  0
  -10.4105  -14.3736   19.1528 N   0  0  0  0  0  0  0  0  0  0  0  0
  -11.5968  -15.9860   19.5224 C   0  0  0  0  0  0  0  0  0  0  0  0
  -11.2405  -17.1773   18.0669 C   0  0  0  0  0  0  0  0  0  0  0  0
  -12.3251  -18.1688   17.0700 C   0  0  0  0  0  0  0  0  0  0  0  0
  -12.8630  -19.2378   18.0739 C   0  0  0  0  0  0  0  0  0  0  0  0
  -12.1205  -19.0771   19.1486 C   0  0  0  0  0  0  0  0  0  0  0  0
  -11.3321  -17.5636   19.4622 N   0  0  0  0  0  0  0  0  0  0  0  0
  -10.5204  -12.9015   17.8142 C   0  0  0  0  0  0  0  0  0  0  0  0
  -10.8191  -12.3099   16.0654 C   0  0  0  0  0  0  0  0  0  0  0  0
  -13.8480  -10.5848   15.5232 H   0  0  0  0  0  0  0  0  0  0  0  0
  -13.5767  -10.5270   12.2260 H   0  0  0  0  0  0  0  0  0  0  0  0
  -14.2858   -8.9559   10.4701 H   0  0  0  0  0  0  0  0  0  0  0  0
  -16.4919   -4.7257   11.2333 H   0  0  0  0  0  0  0  0  0  0  0  0
  -14.7160   -7.7582   15.3205 H   0  0  0  0  0  0  0  0  0  0  0  0
  -12.4075  -11.1976   18.0713 H   0  0  0  0  0  0  0  0  0  0  0  0
  -10.9315  -10.4664   18.1670 H   0  0  0  0  0  0  0  0  0  0  0  0
   -8.8871  -12.4815   18.2393 H   0  0  0  0  0  0  0  0  0  0  0  0
   -9.3700  -11.8866   19.3556 H   0  0  0  0  0  0  0  0  0  0  0  0
  -10.3141  -17.8130   17.9750 H   0  0  0  0  0  0  0  0  0  0  0  0
  -12.5602  -17.9206   16.0429 H   0  0  0  0  0  0  0  0  0  0  0  0
  -13.3597  -20.1876   17.8377 H   0  0  0  0  0  0  0  0  0  0  0  0
  -11.8540  -19.9031   19.8108 H   0  0  0  0  0  0  0  0  0  0  0  0
  -10.6434  -13.8389   17.6737 H   0  0  0  0  0  0  0  0  0  0  0  0
  -10.9546  -13.2969   16.8911 H   0  0  0  0  0  0  0  0  0  0  0  0
  -11.0156  -12.9960   15.2184 H   0  0  0  0  0  0  0  0  0  0  0  0
   -9.9368  -11.9702   15.4611 H   0  0  0  0  0  0  0  0  0  0  0  0
  1  2  2  0
  2  3  1  0
  3  4  1  0
  4  5  2  0
  5  6  1  0
  6  7  2  0
  7  8  1  0
  8  9  2  0
  9 10  1  0
 10 11  1  0
 11 12  2  0
  2 13  1  0
 13 14  1  0
 14 15  1  0
 15 16  1  0
 16 17  1  0
 17 18  2  0
 18 19  1  0
 19 20  2  0
 20 21  1  0
 21 22  2  0
 16 23  1  0
 23 24  1  0
 12  4  1  0
 24 13  1  0
 11  7  1  0
 22 17  1  0
  3 25  1  0
  5 26  1  0
  6 27  1  0
  9 28  1  0
 12 29  1  0
 14 30  1  0
 14 31  1  0
 15 32  1  0
 15 33  1  0
 18 34  1  0
 19 35  1  0
 20 36  1  0
 21 37  1  0
 23 38  1  0
 23 39  1  0
 24 40  1  0
 24 41  1  0
M  END
>  <Energy>  (1212) 
1709.1001688929696

>  <compound_id>  (1212) 
11047

>  <target_id>  (1212) 
1

>  <reference_id>  (1212) 
69

>  <inspiration_ids>  (1212) 
[69, 82]

>  <energy_score>  (1212) 
1606.1987513851877

>  <distance_score>  (1212) 
13.673586676463684

>  <path>  (1212) 
/opt/xchem-fragalysis-2/maxwin/BulkDock/SCRATCH/511020/C11047-P69/C11047-P69.minimised.mol

>  <scratch_subdir>  (1212) 
/opt/xchem-fragalysis-2/maxwin/BulkDock/SCRATCH/511020/C11047-P69

>  <fragmenstein_runtime>  (1212) 
32.68766641616821

>  <fragmenstein_outcome>  (1212) 
too moved

>  <fragmenstein_mode>  (1212) 
expansion

>  <fragmenstein_error>  (1212) 


$$$$
C11047-P82
     RDKit          3D

 41 44  0  0  0  0  0  0  0  0999 V2000
  -13.1688   -7.2141   23.0490 O   0  0  0  0  0  0  0  0  0  0  0  0
  -12.0331   -7.3728   23.3549 C   0  0  0  0  0  0  0  0  0  0  0  0
  -10.8028   -6.3817   23.1168 N   0  0  0  0  0  0  0  0  0  0  0  0
  -10.7240   -5.0681   22.3744 C   0  0  0  0  0  0  0  0  0  0  0  0
  -11.7925   -4.7247   21.5230 C   0  0  0  0  0  0  0  0  0  0  0  0
  -11.5925   -4.0503   20.2828 C   0  0  0  0  0  0  0  0  0  0  0  0
  -10.2970   -3.7035   19.8412 C   0  0  0  0  0  0  0  0  0  0  0  0
   -9.9520   -3.1995   18.5868 N   0  0  0  0  0  0  0  0  0  0  0  0
   -8.6504   -3.0408   18.5164 C   0  0  0  0  0  0  0  0  0  0  0  0
   -7.7682   -3.4510   19.9303 S   0  0  0  0  0  0  0  0  0  0  0  0
   -9.2400   -3.9226   20.7328 C   0  0  0  0  0  0  0  0  0  0  0  0
   -9.4403   -4.5264   22.0333 C   0  0  0  0  0  0  0  0  0  0  0  0
  -11.2944   -8.6315   24.2841 N   0  0  0  0  0  0  0  0  0  0  0  0
  -10.5496  -10.3310   23.7284 C   0  0  0  0  0  0  0  0  0  0  0  0
  -10.3556  -11.6831   25.1506 C   0  0  0  0  0  0  0  0  0  0  0  0
  -11.4859  -12.6212   26.0941 N   0  0  0  0  0  0  0  0  0  0  0  0
  -11.4741  -14.1202   27.0533 C   0  0  0  0  0  0  0  0  0  0  0  0
  -12.3809  -14.4889   28.2057 C   0  0  0  0  0  0  0  0  0  0  0  0
  -12.5617  -15.9853   29.0957 C   0  0  0  0  0  0  0  0  0  0  0  0
  -12.0084  -17.6357   28.6759 C   0  0  0  0  0  0  0  0  0  0  0  0
  -10.7307  -17.0460   27.3333 C   0  0  0  0  0  0  0  0  0  0  0  0
  -10.5960  -15.4297   26.8329 N   0  0  0  0  0  0  0  0  0  0  0  0
  -12.3639  -11.4007   26.0788 C   0  0  0  0  0  0  0  0  0  0  0  0
  -11.8302   -9.7279   25.0024 C   0  0  0  0  0  0  0  0  0  0  0  0
   -9.9675   -6.7632   23.5770 H   0  0  0  0  0  0  0  0  0  0  0  0
  -12.7898   -5.1182   21.7227 H   0  0  0  0  0  0  0  0  0  0  0  0
  -12.4389   -3.8900   19.6196 H   0  0  0  0  0  0  0  0  0  0  0  0
   -8.1594   -2.6642   17.6282 H   0  0  0  0  0  0  0  0  0  0  0  0
   -8.5632   -4.7925   22.6211 H   0  0  0  0  0  0  0  0  0  0  0  0
   -9.5448  -10.2056   23.3162 H   0  0  0  0  0  0  0  0  0  0  0  0
  -11.3349  -10.8734   23.1752 H   0  0  0  0  0  0  0  0  0  0  0  0
  -10.4859  -10.9286   25.8533 H   0  0  0  0  0  0  0  0  0  0  0  0
   -9.3966  -11.6533   25.6426 H   0  0  0  0  0  0  0  0  0  0  0  0
  -13.0434  -13.7090   28.5874 H   0  0  0  0  0  0  0  0  0  0  0  0
  -13.1975  -15.8294   29.9671 H   0  0  0  0  0  0  0  0  0  0  0  0
  -12.2790  -18.6031   28.9295 H   0  0  0  0  0  0  0  0  0  0  0  0
   -9.7981  -17.5408   27.0679 H   0  0  0  0  0  0  0  0  0  0  0  0
  -13.3786  -11.7074   25.7825 H   0  0  0  0  0  0  0  0  0  0  0  0
  -12.3918  -11.1280   27.1501 H   0  0  0  0  0  0  0  0  0  0  0  0
  -12.2765   -8.8081   24.9437 H   0  0  0  0  0  0  0  0  0  0  0  0
  -11.2615   -9.4546   25.9553 H   0  0  0  0  0  0  0  0  0  0  0  0
  1  2  2  0
  2  3  1  0
  3  4  1  0
  4  5  2  0
  5  6  1  0
  6  7  2  0
  7  8  1  0
  8  9  2  0
  9 10  1  0
 10 11  1  0
 11 12  2  0
  2 13  1  0
 13 14  1  0
 14 15  1  0
 15 16  1  0
 16 17  1  0
 17 18  2  0
 18 19  1  0
 19 20  2  0
 20 21  1  0
 21 22  2  0
 16 23  1  0
 23 24  1  0
 12  4  1  0
 24 13  1  0
 11  7  1  0
 22 17  1  0
  3 25  1  0
  5 26  1  0
  6 27  1  0
  9 28  1  0
 12 29  1  0
 14 30  1  0
 14 31  1  0
 15 32  1  0
 15 33  1  0
 18 34  1  0
 19 35  1  0
 20 36  1  0
 21 37  1  0
 23 38  1  0
 23 39  1  0
 24 40  1  0
 24 41  1  0
M  END
>  <Energy>  (1213) 
925.09336268638685

>  <compound_id>  (1213) 
11047

>  <target_id>  (1213) 
1

>  <reference_id>  (1213) 
82

>  <inspiration_ids>  (1213) 
[69, 82]

>  <energy_score>  (1213) 
822.1919451785839

>  <distance_score>  (1213) 
13.100341730012175

>  <path>  (1213) 
/opt/xchem-fragalysis-2/maxwin/BulkDock/SCRATCH/511020/C11047-P82/C11047-P82.minimised.mol

>  <scratch_subdir>  (1213) 
/opt/xchem-fragalysis-2/maxwin/BulkDock/SCRATCH/511020/C11047-P82

>  <fragmenstein_runtime>  (1213) 
23.983344554901123

>  <fragmenstein_outcome>  (1213) 
too moved

>  <fragmenstein_mode>  (1213) 
expansion

>  <fragmenstein_error>  (1213) 


$$$$
C11048-P69
     RDKit          3D

 49 52  0  0  0  0  0  0  0  0999 V2000
   -9.9441  -12.5779   18.5752 O   0  0  0  0  0  0  0  0  0  0  0  0
   -8.8859  -12.6407   19.1524 C   0  0  0  0  0  0  0  0  0  0  0  0
   -7.3605  -11.7072   17.9551 C   0  0  0  0  0  0  0  0  0  0  0  0
   -6.4805  -10.4232   16.3497 C   0  0  0  0  0  0  0  0  0  0  0  0
   -5.9696  -10.1339   14.1833 C   0  0  0  0  0  0  0  0  0  0  0  0
   -5.3944   -8.5733   12.2205 S   0  0  0  0  0  0  0  0  0  0  0  0
   -6.2245   -7.7594   10.1153 C   0  0  0  0  0  0  0  0  0  0  0  0
   -7.2583   -7.7186    8.7713 N   0  0  0  0  0  0  0  0  0  0  0  0
   -7.8721   -6.1262    7.6900 C   0  0  0  0  0  0  0  0  0  0  0  0
   -8.9527   -5.7190    6.7272 C   0  0  0  0  0  0  0  0  0  0  0  0
   -9.1933   -4.4473    6.1753 C   0  0  0  0  0  0  0  0  0  0  0  0
   -8.5106   -3.3952    6.6757 C   0  0  0  0  0  0  0  0  0  0  0  0
   -7.6965   -3.6547    7.7581 C   0  0  0  0  0  0  0  0  0  0  0  0
   -7.4297   -4.9954    8.2595 C   0  0  0  0  0  0  0  0  0  0  0  0
   -6.6916   -5.6260    9.6257 S   0  0  0  0  0  0  0  0  0  0  0  0
   -8.9533  -13.4543   20.9341 N   0  0  0  0  0  0  0  0  0  0  0  0
  -10.7014  -14.1092   22.2136 C   0  0  0  0  0  0  0  0  0  0  0  0
  -11.0682  -16.0327   23.3174 C   0  0  0  0  0  0  0  0  0  0  0  0
   -9.8861  -17.8956   23.3475 N   0  0  0  0  0  0  0  0  0  0  0  0
  -10.3911  -19.7578   23.4407 C   0  0  0  0  0  0  0  0  0  0  0  0
  -11.5943  -20.3676   23.9995 C   0  0  0  0  0  0  0  0  0  0  0  0
  -12.1043  -21.7091   23.9076 C   0  0  0  0  0  0  0  0  0  0  0  0
  -11.4607  -22.6058   23.1433 C   0  0  0  0  0  0  0  0  0  0  0  0
  -10.3705  -22.0635   22.5511 C   0  0  0  0  0  0  0  0  0  0  0  0
   -9.8420  -20.7831   22.7321 N   0  0  0  0  0  0  0  0  0  0  0  0
   -8.2755  -17.2126   22.1088 C   0  0  0  0  0  0  0  0  0  0  0  0
   -8.5287  -15.5502   20.7280 C   0  0  0  0  0  0  0  0  0  0  0  0
   -7.4011  -11.0034   18.8159 H   0  0  0  0  0  0  0  0  0  0  0  0
   -6.4629  -12.2525   18.2728 H   0  0  0  0  0  0  0  0  0  0  0  0
   -6.6820   -9.4042   16.7216 H   0  0  0  0  0  0  0  0  0  0  0  0
   -5.4412  -10.5388   16.6667 H   0  0  0  0  0  0  0  0  0  0  0  0
   -4.9124  -10.4377   14.0467 H   0  0  0  0  0  0  0  0  0  0  0  0
   -5.9835  -11.1466   13.6868 H   0  0  0  0  0  0  0  0  0  0  0  0
   -9.7097   -6.4207    6.3630 H   0  0  0  0  0  0  0  0  0  0  0  0
   -9.9557   -4.3203    5.4118 H   0  0  0  0  0  0  0  0  0  0  0  0
   -8.6875   -2.3837    6.3286 H   0  0  0  0  0  0  0  0  0  0  0  0
   -7.3308   -2.7484    8.2365 H   0  0  0  0  0  0  0  0  0  0  0  0
  -11.3365  -13.7271   21.4102 H   0  0  0  0  0  0  0  0  0  0  0  0
  -11.2687  -13.4166   22.8395 H   0  0  0  0  0  0  0  0  0  0  0  0
  -12.0130  -16.1888   22.7421 H   0  0  0  0  0  0  0  0  0  0  0  0
  -11.6616  -16.0211   24.2474 H   0  0  0  0  0  0  0  0  0  0  0  0
  -12.3803  -19.8383   24.4273 H   0  0  0  0  0  0  0  0  0  0  0  0
  -13.0448  -21.9782   24.3754 H   0  0  0  0  0  0  0  0  0  0  0  0
  -11.8099  -23.6097   22.9643 H   0  0  0  0  0  0  0  0  0  0  0  0
   -9.8628  -22.6691   21.8217 H   0  0  0  0  0  0  0  0  0  0  0  0
   -7.5334  -16.8324   22.7977 H   0  0  0  0  0  0  0  0  0  0  0  0
   -7.6964  -18.0691   21.7244 H   0  0  0  0  0  0  0  0  0  0  0  0
   -8.3055  -15.7248   19.6415 H   0  0  0  0  0  0  0  0  0  0  0  0
   -9.4251  -15.8790   20.1017 H   0  0  0  0  0  0  0  0  0  0  0  0
  1  2  2  0
  2  3  1  0
  3  4  1  0
  4  5  1  0
  5  6  1  0
  6  7  1  0
  7  8  2  0
  8  9  1  0
  9 10  2  0
 10 11  1  0
 11 12  2  0
 12 13  1  0
 13 14  2  0
 14 15  1  0
  2 16  1  0
 16 17  1  0
 17 18  1  0
 18 19  1  0
 19 20  1  0
 20 21  2  0
 21 22  1  0
 22 23  2  0
 23 24  1  0
 24 25  2  0
 19 26  1  0
 26 27  1  0
 15  7  1  0
 27 16  1  0
 14  9  1  0
 25 20  1  0
  3 28  1  0
  3 29  1  0
  4 30  1  0
  4 31  1  0
  5 32  1  0
  5 33  1  0
 10 34  1  0
 11 35  1  0
 12 36  1  0
 13 37  1  0
 17 38  1  0
 17 39  1  0
 18 40  1  0
 18 41  1  0
 21 42  1  0
 22 43  1  0
 23 44  1  0
 24 45  1  0
 26 46  1  0
 26 47  1  0
 27 48  1  0
 27 49  1  0
M  END
>  <Energy>  (1214) 
2530.0758670785995

>  <compound_id>  (1214) 
11048

>  <target_id>  (1214) 
1

>  <reference_id>  (1214) 
69

>  <inspiration_ids>  (1214) 
[69, 82]

>  <energy_score>  (1214) 
2409.8462862741967

>  <distance_score>  (1214) 
6.92769313197073

>  <path>  (1214) 
/opt/xchem-fragalysis-2/maxwin/BulkDock/SCRATCH/511020/C11048-P69/C11048-P69.minimised.mol

>  <scratch_subdir>  (1214) 
/opt/xchem-fragalysis-2/maxwin/BulkDock/SCRATCH/511020/C11048-P69

>  <fragmenstein_runtime>  (1214) 
34.35497045516968

>  <fragmenstein_outcome>  (1214) 
too moved

>  <fragmenstein_mode>  (1214) 
expansion

>  <fragmenstein_error>  (1214) 


$$$$
C11048-P82
     RDKit          3D

 49 52  0  0  0  0  0  0  0  0999 V2000
   -7.3403  -12.9443   19.6050 O   0  0  0  0  0  0  0  0  0  0  0  0
   -7.9078  -13.4000   18.6744 C   0  0  0  0  0  0  0  0  0  0  0  0
   -7.8165  -12.1540   17.2089 C   0  0  0  0  0  0  0  0  0  0  0  0
   -6.5540  -10.6347   16.3673 C   0  0  0  0  0  0  0  0  0  0  0  0
   -6.1364  -10.1805   14.3109 C   0  0  0  0  0  0  0  0  0  0  0  0
   -4.9343   -8.9347   12.5910 S   0  0  0  0  0  0  0  0  0  0  0  0
   -5.5139   -7.4920   11.0043 C   0  0  0  0  0  0  0  0  0  0  0  0
   -6.5045   -7.3777    9.9824 N   0  0  0  0  0  0  0  0  0  0  0  0
   -7.0045   -5.7027    9.4403 C   0  0  0  0  0  0  0  0  0  0  0  0
   -8.1234   -4.7023    8.7138 C   0  0  0  0  0  0  0  0  0  0  0  0
   -8.1311   -3.7461    7.6481 C   0  0  0  0  0  0  0  0  0  0  0  0
   -6.9656   -3.4270    7.0425 C   0  0  0  0  0  0  0  0  0  0  0  0
   -5.8812   -3.9734    7.6775 C   0  0  0  0  0  0  0  0  0  0  0  0
   -5.9615   -5.1577    9.0050 C   0  0  0  0  0  0  0  0  0  0  0  0
   -4.2844   -6.0507   10.3924 S   0  0  0  0  0  0  0  0  0  0  0  0
   -8.5852  -15.1466   18.9006 N   0  0  0  0  0  0  0  0  0  0  0  0
   -8.6236  -15.9973   20.0668 C   0  0  0  0  0  0  0  0  0  0  0  0
   -7.6024  -17.1345   21.3396 C   0  0  0  0  0  0  0  0  0  0  0  0
   -7.4660  -18.6944   21.2368 N   0  0  0  0  0  0  0  0  0  0  0  0
   -8.1332  -19.7156   22.5591 C   0  0  0  0  0  0  0  0  0  0  0  0
   -8.9733  -21.2703   22.2777 C   0  0  0  0  0  0  0  0  0  0  0  0
  -10.1642  -22.1284   22.2035 C   0  0  0  0  0  0  0  0  0  0  0  0
  -11.2006  -21.6389   22.8521 C   0  0  0  0  0  0  0  0  0  0  0  0
  -10.8060  -20.4517   23.4141 C   0  0  0  0  0  0  0  0  0  0  0  0
   -9.4916  -19.3447   23.3274 N   0  0  0  0  0  0  0  0  0  0  0  0
   -7.0091  -18.5353   19.4829 C   0  0  0  0  0  0  0  0  0  0  0  0
   -7.6824  -16.8633   18.5049 C   0  0  0  0  0  0  0  0  0  0  0  0
   -7.6788  -13.2028   16.8045 H   0  0  0  0  0  0  0  0  0  0  0  0
   -8.5951  -12.1161   16.4929 H   0  0  0  0  0  0  0  0  0  0  0  0
   -5.5951  -10.8140   16.8676 H   0  0  0  0  0  0  0  0  0  0  0  0
   -6.8287   -9.6587   16.7852 H   0  0  0  0  0  0  0  0  0  0  0  0
   -5.6967  -11.0147   13.8073 H   0  0  0  0  0  0  0  0  0  0  0  0
   -7.2094   -9.8901   14.0912 H   0  0  0  0  0  0  0  0  0  0  0  0
   -9.1196   -4.6697    9.1847 H   0  0  0  0  0  0  0  0  0  0  0  0
   -9.0657   -3.2684    7.3632 H   0  0  0  0  0  0  0  0  0  0  0  0
   -6.8871   -2.7118    6.2372 H   0  0  0  0  0  0  0  0  0  0  0  0
   -4.8601   -3.6740    7.4036 H   0  0  0  0  0  0  0  0  0  0  0  0
   -8.3624  -15.1432   20.6055 H   0  0  0  0  0  0  0  0  0  0  0  0
   -9.6628  -16.2336   19.9596 H   0  0  0  0  0  0  0  0  0  0  0  0
   -7.7901  -16.9619   22.3668 H   0  0  0  0  0  0  0  0  0  0  0  0
   -6.5901  -16.9373   21.0107 H   0  0  0  0  0  0  0  0  0  0  0  0
   -8.3493  -21.9762   22.9407 H   0  0  0  0  0  0  0  0  0  0  0  0
  -10.0989  -23.1685   21.9126 H   0  0  0  0  0  0  0  0  0  0  0  0
  -12.1155  -22.1584   23.0803 H   0  0  0  0  0  0  0  0  0  0  0  0
  -11.5760  -20.2138   24.1588 H   0  0  0  0  0  0  0  0  0  0  0  0
   -5.9099  -18.4448   19.5151 H   0  0  0  0  0  0  0  0  0  0  0  0
   -7.2156  -19.4520   18.9415 H   0  0  0  0  0  0  0  0  0  0  0  0
   -6.8550  -16.8299   19.2304 H   0  0  0  0  0  0  0  0  0  0  0  0
   -7.6274  -16.9374   17.4292 H   0  0  0  0  0  0  0  0  0  0  0  0
  1  2  2  0
  2  3  1  0
  3  4  1  0
  4  5  1  0
  5  6  1  0
  6  7  1  0
  7  8  2  0
  8  9  1  0
  9 10  2  0
 10 11  1  0
 11 12  2  0
 12 13  1  0
 13 14  2  0
 14 15  1  0
  2 16  1  0
 16 17  1  0
 17 18  1  0
 18 19  1  0
 19 20  1  0
 20 21  2  0
 21 22  1  0
 22 23  2  0
 23 24  1  0
 24 25  2  0
 19 26  1  0
 26 27  1  0
 15  7  1  0
 27 16  1  0
 14  9  1  0
 25 20  1  0
  3 28  1  0
  3 29  1  0
  4 30  1  0
  4 31  1  0
  5 32  1  0
  5 33  1  0
 10 34  1  0
 11 35  1  0
 12 36  1  0
 13 37  1  0
 17 38  1  0
 17 39  1  0
 18 40  1  0
 18 41  1  0
 21 42  1  0
 22 43  1  0
 23 44  1  0
 24 45  1  0
 26 46  1  0
 26 47  1  0
 27 48  1  0
 27 49  1  0
M  END
>  <Energy>  (1215) 
1630.7898414343217

>  <compound_id>  (1215) 
11048

>  <target_id>  (1215) 
1

>  <reference_id>  (1215) 
82

>  <inspiration_ids>  (1215) 
[69, 82]

>  <energy_score>  (1215) 
1510.560260629939

>  <distance_score>  (1215) 
7.569859996243075

>  <path>  (1215) 
/opt/xchem-fragalysis-2/maxwin/BulkDock/SCRATCH/511020/C11048-P82/C11048-P82.minimised.mol

>  <scratch_subdir>  (1215) 
/opt/xchem-fragalysis-2/maxwin/BulkDock/SCRATCH/511020/C11048-P82

>  <fragmenstein_runtime>  (1215) 
29.699562788009644

>  <fragmenstein_outcome>  (1215) 
too moved

>  <fragmenstein_mode>  (1215) 
expansion

>  <fragmenstein_error>  (1215) 


$$$$
C52439-P69
     RDKit          3D

 47 50  0  0  0  0  0  0  0  0999 V2000
   -7.5747  -17.7051   22.3100 O   0  0  0  0  0  0  0  0  0  0  0  0
   -7.7733  -16.5119   22.5214 C   0  0  0  0  0  0  0  0  0  0  0  0
   -7.8946  -15.9884   24.7601 C   0  0  0  0  0  0  0  0  0  0  0  0
   -9.0485  -16.2608   26.3417 N   0  0  0  0  0  0  0  0  0  0  0  0
  -10.6042  -16.2795   26.7093 C   0  0  0  0  0  0  0  0  0  0  0  0
  -11.3697  -16.8063   28.3495 C   0  0  0  0  0  0  0  0  0  0  0  0
  -10.7466  -17.9742   29.1796 N   0  0  0  0  0  0  0  0  0  0  0  0
  -11.3000  -19.6913   29.6421 C   0  0  0  0  0  0  0  0  0  0  0  0
  -12.3178  -20.3812   29.1124 N   0  0  0  0  0  0  0  0  0  0  0  0
  -12.0393  -21.7371   29.0682 C   0  0  0  0  0  0  0  0  0  0  0  0
  -11.5253  -22.2194   30.2213 C   0  0  0  0  0  0  0  0  0  0  0  0
  -10.8814  -20.9146   31.0730 S   0  0  0  0  0  0  0  0  0  0  0  0
   -9.1007  -17.5353   28.5821 C   0  0  0  0  0  0  0  0  0  0  0  0
   -8.6873  -16.2865   27.7629 C   0  0  0  0  0  0  0  0  0  0  0  0
   -8.1353  -15.2182   20.9997 N   0  0  0  0  0  0  0  0  0  0  0  0
   -8.4233  -15.3540   19.0347 C   0  0  0  0  0  0  0  0  0  0  0  0
   -8.1287  -13.3203   18.2722 C   0  0  0  0  0  0  0  0  0  0  0  0
   -8.2824  -12.4147   16.4186 C   0  0  0  0  0  0  0  0  0  0  0  0
   -8.3873  -11.2947   15.5442 N   0  0  0  0  0  0  0  0  0  0  0  0
   -8.5179  -11.0333   14.1055 C   0  0  0  0  0  0  0  0  0  0  0  0
   -8.1737   -9.8797   13.3870 C   0  0  0  0  0  0  0  0  0  0  0  0
   -7.9673   -9.9440   11.9998 C   0  0  0  0  0  0  0  0  0  0  0  0
   -8.4197  -11.0157   11.2770 C   0  0  0  0  0  0  0  0  0  0  0  0
   -8.9101  -12.1049   11.9745 C   0  0  0  0  0  0  0  0  0  0  0  0
   -8.7858  -12.1420   13.3921 C   0  0  0  0  0  0  0  0  0  0  0  0
   -9.1524  -13.3840   14.5363 S   0  0  0  0  0  0  0  0  0  0  0  0
   -7.6291  -14.9306   25.0739 H   0  0  0  0  0  0  0  0  0  0  0  0
   -9.0047  -16.0252   24.6596 H   0  0  0  0  0  0  0  0  0  0  0  0
  -10.9489  -15.2479   26.8020 H   0  0  0  0  0  0  0  0  0  0  0  0
  -11.1142  -16.6810   25.8391 H   0  0  0  0  0  0  0  0  0  0  0  0
  -11.1440  -15.9206   28.9644 H   0  0  0  0  0  0  0  0  0  0  0  0
  -12.4633  -16.7988   28.3640 H   0  0  0  0  0  0  0  0  0  0  0  0
  -12.3831  -22.3272   28.2356 H   0  0  0  0  0  0  0  0  0  0  0  0
  -11.3538  -23.2302   30.5375 H   0  0  0  0  0  0  0  0  0  0  0  0
   -8.4873  -17.2386   29.4368 H   0  0  0  0  0  0  0  0  0  0  0  0
   -8.6115  -18.4251   28.2462 H   0  0  0  0  0  0  0  0  0  0  0  0
   -7.6536  -16.3544   27.9922 H   0  0  0  0  0  0  0  0  0  0  0  0
   -9.0071  -15.3576   28.2583 H   0  0  0  0  0  0  0  0  0  0  0  0
   -8.3460  -14.3530   21.3508 H   0  0  0  0  0  0  0  0  0  0  0  0
   -7.9907  -16.1527   18.4209 H   0  0  0  0  0  0  0  0  0  0  0  0
   -9.4887  -15.3618   19.1394 H   0  0  0  0  0  0  0  0  0  0  0  0
   -9.0063  -12.7946   18.7493 H   0  0  0  0  0  0  0  0  0  0  0  0
   -7.4267  -12.6492   18.8167 H   0  0  0  0  0  0  0  0  0  0  0  0
   -7.9443   -8.9871   13.9349 H   0  0  0  0  0  0  0  0  0  0  0  0
   -7.4760   -9.1394   11.4733 H   0  0  0  0  0  0  0  0  0  0  0  0
   -8.3817  -11.0167   10.1926 H   0  0  0  0  0  0  0  0  0  0  0  0
   -9.3256  -12.9499   11.4329 H   0  0  0  0  0  0  0  0  0  0  0  0
  1  2  2  0
  2  3  1  0
  3  4  1  0
  4  5  1  0
  5  6  1  0
  6  7  1  0
  7  8  1  0
  8  9  2  0
  9 10  1  0
 10 11  2  0
 11 12  1  0
  7 13  1  0
 13 14  1  0
  2 15  1  0
 15 16  1  0
 16 17  1  0
 17 18  1  0
 18 19  2  0
 19 20  1  0
 20 21  2  0
 21 22  1  0
 22 23  2  0
 23 24  1  0
 24 25  2  0
 25 26  1  0
 14  4  1  0
 26 18  1  0
 12  8  1  0
 25 20  1  0
  3 27  1  0
  3 28  1  0
  5 29  1  0
  5 30  1  0
  6 31  1  0
  6 32  1  0
 10 33  1  0
 11 34  1  0
 13 35  1  0
 13 36  1  0
 14 37  1  0
 14 38  1  0
 15 39  1  0
 16 40  1  0
 16 41  1  0
 17 42  1  0
 17 43  1  0
 21 44  1  0
 22 45  1  0
 23 46  1  0
 24 47  1  0
M  END
>  <Energy>  (1216) 
1287.1232157358861

>  <compound_id>  (1216) 
52439

>  <target_id>  (1216) 
1

>  <reference_id>  (1216) 
69

>  <inspiration_ids>  (1216) 
[69, 82]

>  <energy_score>  (1216) 
1064.3199263504825

>  <distance_score>  (1216) 
10.32291150265216

>  <path>  (1216) 
/opt/xchem-fragalysis-2/maxwin/BulkDock/SCRATCH/511020/C52439-P69/C52439-P69.minimised.mol

>  <scratch_subdir>  (1216) 
/opt/xchem-fragalysis-2/maxwin/BulkDock/SCRATCH/511020/C52439-P69

>  <fragmenstein_runtime>  (1216) 
53.609591245651245

>  <fragmenstein_outcome>  (1216) 
too moved

>  <fragmenstein_mode>  (1216) 
expansion

>  <fragmenstein_error>  (1216) 


$$$$
C52439-P82
     RDKit          3D

 47 50  0  0  0  0  0  0  0  0999 V2000
   -7.5829  -18.0556   22.4637 O   0  0  0  0  0  0  0  0  0  0  0  0
   -8.0496  -16.9177   22.5158 C   0  0  0  0  0  0  0  0  0  0  0  0
   -8.9126  -16.3044   24.6089 C   0  0  0  0  0  0  0  0  0  0  0  0
   -9.4437  -17.1388   26.4770 N   0  0  0  0  0  0  0  0  0  0  0  0
  -10.8471  -16.7701   27.4110 C   0  0  0  0  0  0  0  0  0  0  0  0
  -11.8126  -17.8797   28.7400 C   0  0  0  0  0  0  0  0  0  0  0  0
  -11.9363  -19.8204   29.0830 N   0  0  0  0  0  0  0  0  0  0  0  0
  -12.1827  -21.1439   29.6589 C   0  0  0  0  0  0  0  0  0  0  0  0
  -12.1014  -21.4910   30.9380 N   0  0  0  0  0  0  0  0  0  0  0  0
  -12.1999  -22.8498   31.1438 C   0  0  0  0  0  0  0  0  0  0  0  0
  -12.1289  -23.6186   30.0130 C   0  0  0  0  0  0  0  0  0  0  0  0
  -12.0626  -22.6198   28.6276 S   0  0  0  0  0  0  0  0  0  0  0  0
  -10.1142  -20.2578   28.9918 C   0  0  0  0  0  0  0  0  0  0  0  0
   -9.2089  -18.5214   27.9345 C   0  0  0  0  0  0  0  0  0  0  0  0
   -8.1424  -15.9463   20.7216 N   0  0  0  0  0  0  0  0  0  0  0  0
   -7.7611  -16.5078   18.7252 C   0  0  0  0  0  0  0  0  0  0  0  0
   -7.2698  -15.6784   16.7772 C   0  0  0  0  0  0  0  0  0  0  0  0
   -7.7046  -14.7363   14.9737 C   0  0  0  0  0  0  0  0  0  0  0  0
   -8.8844  -13.9123   14.5220 N   0  0  0  0  0  0  0  0  0  0  0  0
   -8.7028  -12.5214   13.6502 C   0  0  0  0  0  0  0  0  0  0  0  0
   -9.2465  -11.2305   13.7948 C   0  0  0  0  0  0  0  0  0  0  0  0
   -8.9548  -10.1335   12.9784 C   0  0  0  0  0  0  0  0  0  0  0  0
   -8.0524  -10.2239   11.9523 C   0  0  0  0  0  0  0  0  0  0  0  0
   -7.3307  -11.3877   11.8769 C   0  0  0  0  0  0  0  0  0  0  0  0
   -7.6328  -12.4153   12.8141 C   0  0  0  0  0  0  0  0  0  0  0  0
   -6.5808  -13.6722   13.2161 S   0  0  0  0  0  0  0  0  0  0  0  0
   -8.3924  -15.5267   25.1929 H   0  0  0  0  0  0  0  0  0  0  0  0
   -9.9378  -16.7577   24.5095 H   0  0  0  0  0  0  0  0  0  0  0  0
  -10.4396  -15.9890   28.0749 H   0  0  0  0  0  0  0  0  0  0  0  0
  -11.5149  -16.1719   26.7790 H   0  0  0  0  0  0  0  0  0  0  0  0
  -12.8303  -17.4722   28.7996 H   0  0  0  0  0  0  0  0  0  0  0  0
  -11.2773  -17.3589   29.5197 H   0  0  0  0  0  0  0  0  0  0  0  0
  -12.2789  -23.2317   32.1548 H   0  0  0  0  0  0  0  0  0  0  0  0
  -12.1639  -24.6948   29.9385 H   0  0  0  0  0  0  0  0  0  0  0  0
  -10.1325  -20.5660   30.0456 H   0  0  0  0  0  0  0  0  0  0  0  0
  -10.1215  -21.1548   28.2909 H   0  0  0  0  0  0  0  0  0  0  0  0
   -9.3018  -17.6484   28.6116 H   0  0  0  0  0  0  0  0  0  0  0  0
   -8.1207  -18.6144   28.1050 H   0  0  0  0  0  0  0  0  0  0  0  0
   -8.4502  -15.0011   20.8820 H   0  0  0  0  0  0  0  0  0  0  0  0
   -8.7348  -16.1392   18.4163 H   0  0  0  0  0  0  0  0  0  0  0  0
   -7.2558  -17.4960   18.6552 H   0  0  0  0  0  0  0  0  0  0  0  0
   -6.2416  -15.9458   16.5368 H   0  0  0  0  0  0  0  0  0  0  0  0
   -7.1401  -14.6295   17.0208 H   0  0  0  0  0  0  0  0  0  0  0  0
   -9.9406  -11.0297   14.5751 H   0  0  0  0  0  0  0  0  0  0  0  0
   -9.4623   -9.2269   13.2337 H   0  0  0  0  0  0  0  0  0  0  0  0
   -7.8325   -9.3943   11.2943 H   0  0  0  0  0  0  0  0  0  0  0  0
   -6.4787  -11.4758   11.2097 H   0  0  0  0  0  0  0  0  0  0  0  0
  1  2  2  0
  2  3  1  0
  3  4  1  0
  4  5  1  0
  5  6  1  0
  6  7  1  0
  7  8  1  0
  8  9  2  0
  9 10  1  0
 10 11  2  0
 11 12  1  0
  7 13  1  0
 13 14  1  0
  2 15  1  0
 15 16  1  0
 16 17  1  0
 17 18  1  0
 18 19  2  0
 19 20  1  0
 20 21  2  0
 21 22  1  0
 22 23  2  0
 23 24  1  0
 24 25  2  0
 25 26  1  0
 14  4  1  0
 26 18  1  0
 12  8  1  0
 25 20  1  0
  3 27  1  0
  3 28  1  0
  5 29  1  0
  5 30  1  0
  6 31  1  0
  6 32  1  0
 10 33  1  0
 11 34  1  0
 13 35  1  0
 13 36  1  0
 14 37  1  0
 14 38  1  0
 15 39  1  0
 16 40  1  0
 16 41  1  0
 17 42  1  0
 17 43  1  0
 21 44  1  0
 22 45  1  0
 23 46  1  0
 24 47  1  0
M  END
>  <Energy>  (1217) 
1854.9818355295322

>  <compound_id>  (1217) 
52439

>  <target_id>  (1217) 
1

>  <reference_id>  (1217) 
82

>  <inspiration_ids>  (1217) 
[69, 82]

>  <energy_score>  (1217) 
1632.178546144144

>  <distance_score>  (1217) 
9.814567571612342

>  <path>  (1217) 
/opt/xchem-fragalysis-2/maxwin/BulkDock/SCRATCH/511020/C52439-P82/C52439-P82.minimised.mol

>  <scratch_subdir>  (1217) 
/opt/xchem-fragalysis-2/maxwin/BulkDock/SCRATCH/511020/C52439-P82

>  <fragmenstein_runtime>  (1217) 
23.227920055389404

>  <fragmenstein_outcome>  (1217) 
too moved

>  <fragmenstein_mode>  (1217) 
expansion

>  <fragmenstein_error>  (1217) 


$$$$
C11049-P69
     RDKit          3D

 43 46  0  0  0  0  0  0  0  0999 V2000
   -7.2071  -11.8886   18.3967 C   0  0  0  0  0  0  0  0  0  0  0  0
   -8.3290  -12.4050   17.5262 C   0  0  0  0  0  0  0  0  0  0  0  0
   -8.7028  -11.9759   15.5640 C   0  0  0  0  0  0  0  0  0  0  0  0
   -9.0919  -12.7050   14.4432 N   0  0  0  0  0  0  0  0  0  0  0  0
   -8.8026  -12.0491   13.0685 C   0  0  0  0  0  0  0  0  0  0  0  0
   -9.2553  -12.3913   11.7641 C   0  0  0  0  0  0  0  0  0  0  0  0
   -8.8669  -11.6655   10.6115 C   0  0  0  0  0  0  0  0  0  0  0  0
   -7.9877  -10.6014   10.7139 C   0  0  0  0  0  0  0  0  0  0  0  0
   -7.6071  -10.1685   11.9757 C   0  0  0  0  0  0  0  0  0  0  0  0
   -8.1686  -10.8381   13.0807 C   0  0  0  0  0  0  0  0  0  0  0  0
   -8.6691  -10.1807   14.5276 S   0  0  0  0  0  0  0  0  0  0  0  0
   -8.1129  -13.7488   18.6518 N   0  0  0  0  0  0  0  0  0  0  0  0
   -8.3766  -13.8302   20.1413 C   0  0  0  0  0  0  0  0  0  0  0  0
   -7.5636  -15.6023   21.0083 C   0  0  0  0  0  0  0  0  0  0  0  0
   -8.1269  -16.6909   21.4585 N   0  0  0  0  0  0  0  0  0  0  0  0
   -6.9948  -17.8971   21.3894 C   0  0  0  0  0  0  0  0  0  0  0  0
   -7.0043  -18.8807   22.4021 C   0  0  0  0  0  0  0  0  0  0  0  0
   -6.4165  -20.1423   22.2665 C   0  0  0  0  0  0  0  0  0  0  0  0
   -5.7711  -20.4239   21.0920 C   0  0  0  0  0  0  0  0  0  0  0  0
   -5.7075  -19.4036   20.1582 C   0  0  0  0  0  0  0  0  0  0  0  0
   -6.2742  -18.1679   20.2750 N   0  0  0  0  0  0  0  0  0  0  0  0
   -8.8806  -15.8101   19.8619 C   0  0  0  0  0  0  0  0  0  0  0  0
   -8.3168  -15.5627   18.4390 C   0  0  0  0  0  0  0  0  0  0  0  0
   -7.4684  -10.9613   18.8832 H   0  0  0  0  0  0  0  0  0  0  0  0
   -6.9585  -12.2968   19.3762 H   0  0  0  0  0  0  0  0  0  0  0  0
   -6.1848  -12.1015   18.0553 H   0  0  0  0  0  0  0  0  0  0  0  0
   -9.3369  -12.1999   17.9620 H   0  0  0  0  0  0  0  0  0  0  0  0
   -9.9592  -13.2095   11.6647 H   0  0  0  0  0  0  0  0  0  0  0  0
   -9.2426  -11.9721    9.6385 H   0  0  0  0  0  0  0  0  0  0  0  0
   -7.6667  -10.0593    9.8298 H   0  0  0  0  0  0  0  0  0  0  0  0
   -7.0491   -9.2487   12.1029 H   0  0  0  0  0  0  0  0  0  0  0  0
   -8.9032  -13.1211   20.7725 H   0  0  0  0  0  0  0  0  0  0  0  0
   -9.3781  -13.7354   19.7007 H   0  0  0  0  0  0  0  0  0  0  0  0
   -6.6144  -16.0093   20.6199 H   0  0  0  0  0  0  0  0  0  0  0  0
   -7.5620  -15.7896   22.0542 H   0  0  0  0  0  0  0  0  0  0  0  0
   -7.6539  -18.8304   23.2296 H   0  0  0  0  0  0  0  0  0  0  0  0
   -6.5326  -20.8901   23.0422 H   0  0  0  0  0  0  0  0  0  0  0  0
   -5.3118  -21.3857   20.9070 H   0  0  0  0  0  0  0  0  0  0  0  0
   -5.1666  -19.5524   19.2285 H   0  0  0  0  0  0  0  0  0  0  0  0
   -9.7970  -15.3149   19.4752 H   0  0  0  0  0  0  0  0  0  0  0  0
   -9.8629  -16.1859   20.1121 H   0  0  0  0  0  0  0  0  0  0  0  0
   -9.1253  -15.9017   17.8288 H   0  0  0  0  0  0  0  0  0  0  0  0
   -7.6448  -16.1986   17.8532 H   0  0  0  0  0  0  0  0  0  0  0  0
  1  2  1  0
  2  3  1  0
  3  4  2  0
  4  5  1  0
  5  6  2  0
  6  7  1  0
  7  8  2  0
  8  9  1  0
  9 10  2  0
 10 11  1  0
  2 12  1  0
 12 13  1  0
 13 14  1  0
 14 15  1  0
 15 16  1  0
 16 17  2  0
 17 18  1  0
 18 19  2  0
 19 20  1  0
 20 21  2  0
 15 22  1  0
 22 23  1  0
 11  3  1  0
 23 12  1  0
 10  5  1  0
 21 16  1  0
  1 24  1  0
  1 25  1  0
  1 26  1  0
  2 27  1  0
  6 28  1  0
  7 29  1  0
  8 30  1  0
  9 31  1  0
 13 32  1  0
 13 33  1  0
 14 34  1  0
 14 35  1  0
 17 36  1  0
 18 37  1  0
 19 38  1  0
 20 39  1  0
 22 40  1  0
 22 41  1  0
 23 42  1  0
 23 43  1  0
M  END
>  <Energy>  (1218) 
980.80920232555457

>  <compound_id>  (1218) 
11049

>  <target_id>  (1218) 
1

>  <reference_id>  (1218) 
69

>  <inspiration_ids>  (1218) 
[69, 82]

>  <energy_score>  (1218) 
808.8823149844526

>  <distance_score>  (1218) 
12.153763242977096

>  <path>  (1218) 
/opt/xchem-fragalysis-2/maxwin/BulkDock/SCRATCH/511020/C11049-P69/C11049-P69.minimised.mol

>  <scratch_subdir>  (1218) 
/opt/xchem-fragalysis-2/maxwin/BulkDock/SCRATCH/511020/C11049-P69

>  <fragmenstein_runtime>  (1218) 
19.64246654510498

>  <fragmenstein_outcome>  (1218) 
too moved

>  <fragmenstein_mode>  (1218) 
expansion

>  <fragmenstein_error>  (1218) 


$$$$
C11049-P82
     RDKit          3D

 43 46  0  0  0  0  0  0  0  0999 V2000
   -7.1413  -11.3708   17.6711 C   0  0  0  0  0  0  0  0  0  0  0  0
   -8.2426  -12.2427   16.8453 C   0  0  0  0  0  0  0  0  0  0  0  0
   -8.7378  -11.8230   14.9957 C   0  0  0  0  0  0  0  0  0  0  0  0
   -8.5380  -10.5980   14.4238 N   0  0  0  0  0  0  0  0  0  0  0  0
   -8.2646  -10.6159   13.0630 C   0  0  0  0  0  0  0  0  0  0  0  0
   -7.5786   -9.6554   12.2929 C   0  0  0  0  0  0  0  0  0  0  0  0
   -7.4918   -9.7848   10.9015 C   0  0  0  0  0  0  0  0  0  0  0  0
   -8.1123  -10.8486   10.2731 C   0  0  0  0  0  0  0  0  0  0  0  0
   -8.7128  -11.8602   11.0306 C   0  0  0  0  0  0  0  0  0  0  0  0
   -8.6947  -11.7611   12.4368 C   0  0  0  0  0  0  0  0  0  0  0  0
   -9.0192  -12.9472   13.6714 S   0  0  0  0  0  0  0  0  0  0  0  0
   -7.7991  -13.4554   17.4700 N   0  0  0  0  0  0  0  0  0  0  0  0
   -8.3124  -13.7451   18.8963 C   0  0  0  0  0  0  0  0  0  0  0  0
   -8.7176  -15.5337   18.9935 C   0  0  0  0  0  0  0  0  0  0  0  0
   -7.8464  -16.6798   18.1233 N   0  0  0  0  0  0  0  0  0  0  0  0
   -6.7691  -17.7496   18.9729 C   0  0  0  0  0  0  0  0  0  0  0  0
   -6.6251  -17.6297   20.3881 C   0  0  0  0  0  0  0  0  0  0  0  0
   -6.5790  -18.7125   21.3070 C   0  0  0  0  0  0  0  0  0  0  0  0
   -6.4762  -19.9898   20.8376 C   0  0  0  0  0  0  0  0  0  0  0  0
   -6.4315  -20.0749   19.4762 C   0  0  0  0  0  0  0  0  0  0  0  0
   -6.5702  -19.0124   18.5954 N   0  0  0  0  0  0  0  0  0  0  0  0
   -7.3265  -16.0552   16.8362 C   0  0  0  0  0  0  0  0  0  0  0  0
   -7.0644  -14.5254   16.6928 C   0  0  0  0  0  0  0  0  0  0  0  0
   -7.5796  -11.1399   18.6406 H   0  0  0  0  0  0  0  0  0  0  0  0
   -6.2396  -11.9389   17.9824 H   0  0  0  0  0  0  0  0  0  0  0  0
   -6.7352  -10.5358   17.0854 H   0  0  0  0  0  0  0  0  0  0  0  0
   -9.2070  -12.2574   17.3927 H   0  0  0  0  0  0  0  0  0  0  0  0
   -7.1065   -8.8196   12.7928 H   0  0  0  0  0  0  0  0  0  0  0  0
   -6.9587   -9.0413   10.3171 H   0  0  0  0  0  0  0  0  0  0  0  0
   -8.0795  -10.9419    9.1925 H   0  0  0  0  0  0  0  0  0  0  0  0
   -9.1058  -12.7483   10.5450 H   0  0  0  0  0  0  0  0  0  0  0  0
   -7.5991  -13.3720   19.6215 H   0  0  0  0  0  0  0  0  0  0  0  0
   -9.2247  -13.2022   19.1582 H   0  0  0  0  0  0  0  0  0  0  0  0
   -9.7490  -15.6291   18.8278 H   0  0  0  0  0  0  0  0  0  0  0  0
   -8.6258  -15.8037   20.0284 H   0  0  0  0  0  0  0  0  0  0  0  0
   -6.9400  -16.7150   20.8237 H   0  0  0  0  0  0  0  0  0  0  0  0
   -6.6959  -18.5198   22.3676 H   0  0  0  0  0  0  0  0  0  0  0  0
   -6.4515  -20.8560   21.4810 H   0  0  0  0  0  0  0  0  0  0  0  0
   -6.3345  -21.0411   18.9886 H   0  0  0  0  0  0  0  0  0  0  0  0
   -6.2799  -16.1762   16.5727 H   0  0  0  0  0  0  0  0  0  0  0  0
   -7.9856  -16.4185   16.0729 H   0  0  0  0  0  0  0  0  0  0  0  0
   -6.0814  -14.2033   16.8854 H   0  0  0  0  0  0  0  0  0  0  0  0
   -7.1963  -14.5427   15.6244 H   0  0  0  0  0  0  0  0  0  0  0  0
  1  2  1  0
  2  3  1  0
  3  4  2  0
  4  5  1  0
  5  6  2  0
  6  7  1  0
  7  8  2  0
  8  9  1  0
  9 10  2  0
 10 11  1  0
  2 12  1  0
 12 13  1  0
 13 14  1  0
 14 15  1  0
 15 16  1  0
 16 17  2  0
 17 18  1  0
 18 19  2  0
 19 20  1  0
 20 21  2  0
 15 22  1  0
 22 23  1  0
 11  3  1  0
 23 12  1  0
 10  5  1  0
 21 16  1  0
  1 24  1  0
  1 25  1  0
  1 26  1  0
  2 27  1  0
  6 28  1  0
  7 29  1  0
  8 30  1  0
  9 31  1  0
 13 32  1  0
 13 33  1  0
 14 34  1  0
 14 35  1  0
 17 36  1  0
 18 37  1  0
 19 38  1  0
 20 39  1  0
 22 40  1  0
 22 41  1  0
 23 42  1  0
 23 43  1  0
M  END
>  <Energy>  (1219) 
349.10532936213349

>  <compound_id>  (1219) 
11049

>  <target_id>  (1219) 
1

>  <reference_id>  (1219) 
82

>  <inspiration_ids>  (1219) 
[69, 82]

>  <energy_score>  (1219) 
177.17844202104243

>  <distance_score>  (1219) 
12.672644187595276

>  <path>  (1219) 
/opt/xchem-fragalysis-2/maxwin/BulkDock/SCRATCH/511020/C11049-P82/C11049-P82.minimised.mol

>  <scratch_subdir>  (1219) 
/opt/xchem-fragalysis-2/maxwin/BulkDock/SCRATCH/511020/C11049-P82

>  <fragmenstein_runtime>  (1219) 
27.602789163589478

>  <fragmenstein_outcome>  (1219) 
too moved

>  <fragmenstein_mode>  (1219) 
expansion

>  <fragmenstein_error>  (1219) 


$$$$
C6701-P69
     RDKit          3D

 39 42  0  0  0  0  0  0  0  0999 V2000
  -11.5347   -4.2873   16.0440 O   0  0  0  0  0  0  0  0  0  0  0  0
  -11.9194   -5.0665   15.3573 C   0  0  0  0  0  0  0  0  0  0  0  0
  -12.8458   -4.4578   14.3727 C   0  0  0  0  0  0  0  0  0  0  0  0
  -14.0169   -5.0523   13.9291 C   0  0  0  0  0  0  0  0  0  0  0  0
  -15.0184   -4.2550   13.3236 C   0  0  0  0  0  0  0  0  0  0  0  0
  -14.8049   -2.8683   13.0773 C   0  0  0  0  0  0  0  0  0  0  0  0
  -15.5469   -2.0471   12.2422 N   0  0  0  0  0  0  0  0  0  0  0  0
  -15.0098   -0.8435   12.2137 C   0  0  0  0  0  0  0  0  0  0  0  0
  -13.5906   -0.6124   13.1440 S   0  0  0  0  0  0  0  0  0  0  0  0
  -13.6494   -2.2749   13.5792 C   0  0  0  0  0  0  0  0  0  0  0  0
  -12.7139   -3.0426   14.2662 C   0  0  0  0  0  0  0  0  0  0  0  0
  -11.7632   -6.8293   15.2648 N   0  0  0  0  0  0  0  0  0  0  0  0
  -11.2092   -7.7362   15.7460 C   0  0  0  0  0  0  0  0  0  0  0  0
  -10.2216   -9.5073   15.0176 C   0  0  0  0  0  0  0  0  0  0  0  0
  -11.0640  -10.7887   16.3245 N   0  0  0  0  0  0  0  0  0  0  0  0
  -10.6902   -9.8425   18.2396 C   0  0  0  0  0  0  0  0  0  0  0  0
   -9.8342  -11.5097   18.5996 C   0  0  0  0  0  0  0  0  0  0  0  0
   -8.5607  -12.1873   18.1672 C   0  0  0  0  0  0  0  0  0  0  0  0
   -7.8536  -12.6611   19.1059 C   0  0  0  0  0  0  0  0  0  0  0  0
   -8.7499  -13.4124   19.6716 C   0  0  0  0  0  0  0  0  0  0  0  0
  -10.0704  -13.3626   19.3706 N   0  0  0  0  0  0  0  0  0  0  0  0
  -10.5196  -12.4798   18.4890 C   0  0  0  0  0  0  0  0  0  0  0  0
  -10.6954   -7.6926   17.0904 C   0  0  0  0  0  0  0  0  0  0  0  0
  -14.2033   -6.1094   14.0834 H   0  0  0  0  0  0  0  0  0  0  0  0
  -15.9304   -4.7193   12.9556 H   0  0  0  0  0  0  0  0  0  0  0  0
  -15.4455   -0.0312   11.6457 H   0  0  0  0  0  0  0  0  0  0  0  0
  -11.8913   -2.5405   14.7540 H   0  0  0  0  0  0  0  0  0  0  0  0
  -10.7686   -7.5375   14.7282 H   0  0  0  0  0  0  0  0  0  0  0  0
  -12.1586   -8.2033   15.1435 H   0  0  0  0  0  0  0  0  0  0  0  0
   -9.1432   -9.5999   14.9251 H   0  0  0  0  0  0  0  0  0  0  0  0
  -10.7196   -9.4545   14.0485 H   0  0  0  0  0  0  0  0  0  0  0  0
  -10.8366  -11.7863   16.2457 H   0  0  0  0  0  0  0  0  0  0  0  0
  -11.5967   -9.9304   18.8847 H   0  0  0  0  0  0  0  0  0  0  0  0
   -7.9916  -11.9142   17.3068 H   0  0  0  0  0  0  0  0  0  0  0  0
   -6.8271  -12.4318   19.2716 H   0  0  0  0  0  0  0  0  0  0  0  0
   -8.4709  -14.1084   20.3759 H   0  0  0  0  0  0  0  0  0  0  0  0
  -11.4682  -12.0400   18.2648 H   0  0  0  0  0  0  0  0  0  0  0  0
  -10.3136   -6.4673   17.3738 H   0  0  0  0  0  0  0  0  0  0  0  0
  -10.6701   -7.0690   18.1921 H   0  0  0  0  0  0  0  0  0  0  0  0
  1  2  2  0
  2  3  1  0
  3  4  2  0
  4  5  1  0
  5  6  2  0
  6  7  1  0
  7  8  2  0
  8  9  1  0
  9 10  1  0
 10 11  2  0
  2 12  1  0
 12 13  1  0
 13 14  1  0
 14 15  1  0
 15 16  1  0
 16 17  1  0
 17 18  2  0
 18 19  1  0
 19 20  2  0
 20 21  1  0
 21 22  2  0
 16 23  1  0
 11  3  1  0
 23 12  1  0
 10  6  1  0
 22 17  1  0
  4 24  1  0
  5 25  1  0
  8 26  1  0
 11 27  1  0
 13 28  1  0
 13 29  1  0
 14 30  1  0
 14 31  1  0
 15 32  1  0
 16 33  1  0
 18 34  1  0
 19 35  1  0
 20 36  1  0
 22 37  1  0
 23 38  1  0
 23 39  1  0
M  END
>  <Energy>  (1220) 
1803.2371471773686

>  <compound_id>  (1220) 
6701

>  <target_id>  (1220) 
1

>  <reference_id>  (1220) 
69

>  <inspiration_ids>  (1220) 
[69, 82]

>  <energy_score>  (1220) 
1603.1012433624076

>  <distance_score>  (1220) 
14.690388762752773

>  <path>  (1220) 
/opt/xchem-fragalysis-2/maxwin/BulkDock/SCRATCH/511020/C6701-P69/C6701-P69.minimised.mol

>  <scratch_subdir>  (1220) 
/opt/xchem-fragalysis-2/maxwin/BulkDock/SCRATCH/511020/C6701-P69

>  <fragmenstein_runtime>  (1220) 
21.614625930786133

>  <fragmenstein_outcome>  (1220) 
too moved

>  <fragmenstein_mode>  (1220) 
expansion

>  <fragmenstein_error>  (1220) 


$$$$
C6701-P82
     RDKit          3D

 39 42  0  0  0  0  0  0  0  0999 V2000
  -11.0131  -12.6433   15.7312 O   0  0  0  0  0  0  0  0  0  0  0  0
  -11.3991  -11.9151   16.5833 C   0  0  0  0  0  0  0  0  0  0  0  0
  -12.5858  -10.4949   15.7580 C   0  0  0  0  0  0  0  0  0  0  0  0
  -13.9295  -10.5538   15.8642 C   0  0  0  0  0  0  0  0  0  0  0  0
  -15.1197   -9.6375   15.0852 C   0  0  0  0  0  0  0  0  0  0  0  0
  -14.8614   -8.6541   14.1048 C   0  0  0  0  0  0  0  0  0  0  0  0
  -15.7283   -7.8090   13.4436 N   0  0  0  0  0  0  0  0  0  0  0  0
  -15.0377   -6.9046   12.7978 C   0  0  0  0  0  0  0  0  0  0  0  0
  -13.3636   -6.9922   13.0175 S   0  0  0  0  0  0  0  0  0  0  0  0
  -13.5025   -8.4975   13.8656 C   0  0  0  0  0  0  0  0  0  0  0  0
  -12.5277   -9.4713   14.4742 C   0  0  0  0  0  0  0  0  0  0  0  0
  -11.0539  -12.2759   18.3959 N   0  0  0  0  0  0  0  0  0  0  0  0
  -10.1896  -13.2873   19.0430 C   0  0  0  0  0  0  0  0  0  0  0  0
   -9.7493  -13.1635   21.0774 C   0  0  0  0  0  0  0  0  0  0  0  0
  -11.3041  -13.6693   21.3918 N   0  0  0  0  0  0  0  0  0  0  0  0
  -11.6521  -15.3048   20.5461 C   0  0  0  0  0  0  0  0  0  0  0  0
  -13.0559  -16.0974   21.6001 C   0  0  0  0  0  0  0  0  0  0  0  0
  -12.9319  -16.2326   23.0702 C   0  0  0  0  0  0  0  0  0  0  0  0
  -13.8810  -16.8234   23.9467 C   0  0  0  0  0  0  0  0  0  0  0  0
  -15.0335  -17.3038   23.3860 C   0  0  0  0  0  0  0  0  0  0  0  0
  -15.2634  -17.2411   22.0551 N   0  0  0  0  0  0  0  0  0  0  0  0
  -14.3075  -16.6569   21.2168 C   0  0  0  0  0  0  0  0  0  0  0  0
  -10.2624  -13.9989   19.3032 C   0  0  0  0  0  0  0  0  0  0  0  0
  -14.1184  -11.0392   16.8257 H   0  0  0  0  0  0  0  0  0  0  0  0
  -16.1563   -9.6510   15.4226 H   0  0  0  0  0  0  0  0  0  0  0  0
  -15.5155   -6.1275   12.2159 H   0  0  0  0  0  0  0  0  0  0  0  0
  -11.5117   -9.3449   14.0620 H   0  0  0  0  0  0  0  0  0  0  0  0
   -9.5703  -12.2232   19.0161 H   0  0  0  0  0  0  0  0  0  0  0  0
   -8.9747  -13.0305   18.5046 H   0  0  0  0  0  0  0  0  0  0  0  0
   -9.7065  -12.2929   21.7018 H   0  0  0  0  0  0  0  0  0  0  0  0
   -8.8544  -13.6336   20.7911 H   0  0  0  0  0  0  0  0  0  0  0  0
  -11.1733  -14.0545   22.3192 H   0  0  0  0  0  0  0  0  0  0  0  0
  -12.4291  -15.5186   19.7641 H   0  0  0  0  0  0  0  0  0  0  0  0
  -12.0364  -15.8909   23.5354 H   0  0  0  0  0  0  0  0  0  0  0  0
  -13.7012  -16.8862   25.0115 H   0  0  0  0  0  0  0  0  0  0  0  0
  -15.8148  -17.7656   23.9802 H   0  0  0  0  0  0  0  0  0  0  0  0
  -14.6372  -16.7464   20.1867 H   0  0  0  0  0  0  0  0  0  0  0  0
  -10.1053  -15.1066   18.8739 H   0  0  0  0  0  0  0  0  0  0  0  0
   -8.9406  -14.4119   19.4005 H   0  0  0  0  0  0  0  0  0  0  0  0
  1  2  2  0
  2  3  1  0
  3  4  2  0
  4  5  1  0
  5  6  2  0
  6  7  1  0
  7  8  2  0
  8  9  1  0
  9 10  1  0
 10 11  2  0
  2 12  1  0
 12 13  1  0
 13 14  1  0
 14 15  1  0
 15 16  1  0
 16 17  1  0
 17 18  2  0
 18 19  1  0
 19 20  2  0
 20 21  1  0
 21 22  2  0
 16 23  1  0
 11  3  1  0
 23 12  1  0
 10  6  1  0
 22 17  1  0
  4 24  1  0
  5 25  1  0
  8 26  1  0
 11 27  1  0
 13 28  1  0
 13 29  1  0
 14 30  1  0
 14 31  1  0
 15 32  1  0
 16 33  1  0
 18 34  1  0
 19 35  1  0
 20 36  1  0
 22 37  1  0
 23 38  1  0
 23 39  1  0
M  END
>  <Energy>  (1221) 
1623.416436336222

>  <compound_id>  (1221) 
6701

>  <target_id>  (1221) 
1

>  <reference_id>  (1221) 
82

>  <inspiration_ids>  (1221) 
[69, 82]

>  <energy_score>  (1221) 
1423.2805325212296

>  <distance_score>  (1221) 
13.278856159843352

>  <path>  (1221) 
/opt/xchem-fragalysis-2/maxwin/BulkDock/SCRATCH/511020/C6701-P82/C6701-P82.minimised.mol

>  <scratch_subdir>  (1221) 
/opt/xchem-fragalysis-2/maxwin/BulkDock/SCRATCH/511020/C6701-P82

>  <fragmenstein_runtime>  (1221) 
26.99366855621338

>  <fragmenstein_outcome>  (1221) 
too moved

>  <fragmenstein_mode>  (1221) 
expansion

>  <fragmenstein_error>  (1221) 


$$$$
C11050-P69
     RDKit          3D

 39 42  0  0  0  0  0  0  0  0999 V2000
  -17.2040   -7.3563   17.3710 O   0  0  0  0  0  0  0  0  0  0  0  0
  -16.2897   -6.9697   17.9717 C   0  0  0  0  0  0  0  0  0  0  0  0
  -15.0640   -6.6284   17.0594 C   0  0  0  0  0  0  0  0  0  0  0  0
  -14.9700   -7.3211   15.8315 C   0  0  0  0  0  0  0  0  0  0  0  0
  -14.0217   -7.0124   14.8300 C   0  0  0  0  0  0  0  0  0  0  0  0
  -13.1020   -5.9720   15.0344 C   0  0  0  0  0  0  0  0  0  0  0  0
  -12.1061   -5.5878   14.1485 N   0  0  0  0  0  0  0  0  0  0  0  0
  -11.3973   -4.6197   14.6776 C   0  0  0  0  0  0  0  0  0  0  0  0
  -11.9179   -4.0632   16.2135 S   0  0  0  0  0  0  0  0  0  0  0  0
  -13.1790   -5.2578   16.2367 C   0  0  0  0  0  0  0  0  0  0  0  0
  -14.1646   -5.5537   17.2440 C   0  0  0  0  0  0  0  0  0  0  0  0
  -16.0836   -6.6213   19.5443 N   0  0  0  0  0  0  0  0  0  0  0  0
  -17.2441   -6.5038   21.1025 C   0  0  0  0  0  0  0  0  0  0  0  0
  -18.5555   -7.5218   21.8991 C   0  0  0  0  0  0  0  0  0  0  0  0
  -17.8325   -8.7287   22.2062 N   0  0  0  0  0  0  0  0  0  0  0  0
  -18.0669   -9.3372   23.4435 C   0  0  0  0  0  0  0  0  0  0  0  0
  -19.3532   -9.7768   23.7852 C   0  0  0  0  0  0  0  0  0  0  0  0
  -19.6110  -10.4917   24.9774 C   0  0  0  0  0  0  0  0  0  0  0  0
  -18.5858  -10.7491   25.8655 C   0  0  0  0  0  0  0  0  0  0  0  0
  -17.3454  -10.3012   25.4832 C   0  0  0  0  0  0  0  0  0  0  0  0
  -17.0806   -9.6451   24.3015 N   0  0  0  0  0  0  0  0  0  0  0  0
  -16.5431   -8.4516   21.5470 C   0  0  0  0  0  0  0  0  0  0  0  0
  -17.0184   -6.8913   20.4778 C   0  0  0  0  0  0  0  0  0  0  0  0
  -15.6687   -8.1357   15.6341 H   0  0  0  0  0  0  0  0  0  0  0  0
  -13.9910   -7.5910   13.9123 H   0  0  0  0  0  0  0  0  0  0  0  0
  -10.5442   -4.1917   14.1683 H   0  0  0  0  0  0  0  0  0  0  0  0
  -14.2165   -4.9540   18.1479 H   0  0  0  0  0  0  0  0  0  0  0  0
  -17.8063   -5.3931   21.0303 H   0  0  0  0  0  0  0  0  0  0  0  0
  -16.5323   -6.1251   22.0336 H   0  0  0  0  0  0  0  0  0  0  0  0
  -18.8741   -6.9465   22.7769 H   0  0  0  0  0  0  0  0  0  0  0  0
  -19.3837   -7.6805   21.1987 H   0  0  0  0  0  0  0  0  0  0  0  0
  -20.1740   -9.6091   23.0933 H   0  0  0  0  0  0  0  0  0  0  0  0
  -20.6200  -10.8360   25.1867 H   0  0  0  0  0  0  0  0  0  0  0  0
  -18.7448  -11.2854   26.7910 H   0  0  0  0  0  0  0  0  0  0  0  0
  -16.4788  -10.4797   26.1134 H   0  0  0  0  0  0  0  0  0  0  0  0
  -16.2083   -9.2529   20.8768 H   0  0  0  0  0  0  0  0  0  0  0  0
  -15.7453   -8.1422   22.2336 H   0  0  0  0  0  0  0  0  0  0  0  0
  -18.1448   -6.8099   19.7093 H   0  0  0  0  0  0  0  0  0  0  0  0
  -17.2390   -7.9019   19.8242 H   0  0  0  0  0  0  0  0  0  0  0  0
  1  2  2  0
  2  3  1  0
  3  4  2  0
  4  5  1  0
  5  6  2  0
  6  7  1  0
  7  8  2  0
  8  9  1  0
  9 10  1  0
 10 11  2  0
  2 12  1  0
 12 13  1  0
 13 14  1  0
 14 15  1  0
 15 16  1  0
 16 17  2  0
 17 18  1  0
 18 19  2  0
 19 20  1  0
 20 21  2  0
 15 22  1  0
 22 23  1  0
 11  3  1  0
 23 12  1  0
 10  6  1  0
 21 16  1  0
  4 24  1  0
  5 25  1  0
  8 26  1  0
 11 27  1  0
 13 28  1  0
 13 29  1  0
 14 30  1  0
 14 31  1  0
 17 32  1  0
 18 33  1  0
 19 34  1  0
 20 35  1  0
 22 36  1  0
 22 37  1  0
 23 38  1  0
 23 39  1  0
M  END
>  <Energy>  (1222) 
854.88931702463151

>  <compound_id>  (1222) 
11050

>  <target_id>  (1222) 
1

>  <reference_id>  (1222) 
69

>  <inspiration_ids>  (1222) 
[69, 82]

>  <energy_score>  (1222) 
698.0195299988409

>  <distance_score>  (1222) 
14.915695473099419

>  <path>  (1222) 
/opt/xchem-fragalysis-2/maxwin/BulkDock/SCRATCH/511020/C11050-P69/C11050-P69.minimised.mol

>  <scratch_subdir>  (1222) 
/opt/xchem-fragalysis-2/maxwin/BulkDock/SCRATCH/511020/C11050-P69

>  <fragmenstein_runtime>  (1222) 
30.919579029083252

>  <fragmenstein_outcome>  (1222) 
too moved

>  <fragmenstein_mode>  (1222) 
expansion

>  <fragmenstein_error>  (1222) 


$$$$
C11050-P82
     RDKit          3D

 39 42  0  0  0  0  0  0  0  0999 V2000
  -17.3960   -3.3548   14.7207 O   0  0  0  0  0  0  0  0  0  0  0  0
  -16.3973   -3.5147   15.2798 C   0  0  0  0  0  0  0  0  0  0  0  0
  -15.1867   -2.8371   14.6532 C   0  0  0  0  0  0  0  0  0  0  0  0
  -13.8822   -3.2462   14.9034 C   0  0  0  0  0  0  0  0  0  0  0  0
  -12.8038   -2.6242   14.2503 C   0  0  0  0  0  0  0  0  0  0  0  0
  -13.0119   -1.5733   13.3225 C   0  0  0  0  0  0  0  0  0  0  0  0
  -12.0533   -0.9545   12.5297 N   0  0  0  0  0  0  0  0  0  0  0  0
  -12.5984   -0.0556   11.7480 C   0  0  0  0  0  0  0  0  0  0  0  0
  -14.2966    0.0921   11.8832 S   0  0  0  0  0  0  0  0  0  0  0  0
  -14.3185   -1.1639   13.0753 C   0  0  0  0  0  0  0  0  0  0  0  0
  -15.4069   -1.7803   13.7290 C   0  0  0  0  0  0  0  0  0  0  0  0
  -16.0397   -4.2344   16.6404 N   0  0  0  0  0  0  0  0  0  0  0  0
  -17.3431   -5.2674   17.6572 C   0  0  0  0  0  0  0  0  0  0  0  0
  -17.1005   -7.0096   17.5500 C   0  0  0  0  0  0  0  0  0  0  0  0
  -15.9568   -7.1715   18.4113 N   0  0  0  0  0  0  0  0  0  0  0  0
  -16.0541   -8.1275   19.4336 C   0  0  0  0  0  0  0  0  0  0  0  0
  -16.0972   -9.4773   19.0860 C   0  0  0  0  0  0  0  0  0  0  0  0
  -16.0590  -10.4537   20.0661 C   0  0  0  0  0  0  0  0  0  0  0  0
  -15.9318  -10.0561   21.3766 C   0  0  0  0  0  0  0  0  0  0  0  0
  -15.9797   -8.7177   21.6744 C   0  0  0  0  0  0  0  0  0  0  0  0
  -16.0621   -7.7562   20.7346 N   0  0  0  0  0  0  0  0  0  0  0  0
  -15.5728   -5.8029   18.7381 C   0  0  0  0  0  0  0  0  0  0  0  0
  -16.7313   -4.7762   17.6355 C   0  0  0  0  0  0  0  0  0  0  0  0
  -13.6826   -4.0686   15.5868 H   0  0  0  0  0  0  0  0  0  0  0  0
  -11.8002   -3.0009   14.4223 H   0  0  0  0  0  0  0  0  0  0  0  0
  -12.0156    0.5451   11.0611 H   0  0  0  0  0  0  0  0  0  0  0  0
  -16.4223   -1.4532   13.5136 H   0  0  0  0  0  0  0  0  0  0  0  0
  -18.2891   -5.2614   16.8724 H   0  0  0  0  0  0  0  0  0  0  0  0
  -18.0623   -5.0448   18.7074 H   0  0  0  0  0  0  0  0  0  0  0  0
  -16.8789   -7.2682   16.5091 H   0  0  0  0  0  0  0  0  0  0  0  0
  -18.0213   -7.4891   17.9018 H   0  0  0  0  0  0  0  0  0  0  0  0
  -16.0915   -9.7487   18.0392 H   0  0  0  0  0  0  0  0  0  0  0  0
  -16.0590  -11.4988   19.7967 H   0  0  0  0  0  0  0  0  0  0  0  0
  -15.7548  -10.7781   22.1491 H   0  0  0  0  0  0  0  0  0  0  0  0
  -15.9273   -8.3565   22.6937 H   0  0  0  0  0  0  0  0  0  0  0  0
  -14.5412   -5.5812   18.4418 H   0  0  0  0  0  0  0  0  0  0  0  0
  -15.7954   -5.5125   19.7742 H   0  0  0  0  0  0  0  0  0  0  0  0
  -16.0484   -4.0411   18.3326 H   0  0  0  0  0  0  0  0  0  0  0  0
  -17.3259   -3.6058   17.9950 H   0  0  0  0  0  0  0  0  0  0  0  0
  1  2  2  0
  2  3  1  0
  3  4  2  0
  4  5  1  0
  5  6  2  0
  6  7  1  0
  7  8  2  0
  8  9  1  0
  9 10  1  0
 10 11  2  0
  2 12  1  0
 12 13  1  0
 13 14  1  0
 14 15  1  0
 15 16  1  0
 16 17  2  0
 17 18  1  0
 18 19  2  0
 19 20  1  0
 20 21  2  0
 15 22  1  0
 22 23  1  0
 11  3  1  0
 23 12  1  0
 10  6  1  0
 21 16  1  0
  4 24  1  0
  5 25  1  0
  8 26  1  0
 11 27  1  0
 13 28  1  0
 13 29  1  0
 14 30  1  0
 14 31  1  0
 17 32  1  0
 18 33  1  0
 19 34  1  0
 20 35  1  0
 22 36  1  0
 22 37  1  0
 23 38  1  0
 23 39  1  0
M  END
>  <Energy>  (1223) 
823.56209538692849

>  <compound_id>  (1223) 
11050

>  <target_id>  (1223) 
1

>  <reference_id>  (1223) 
82

>  <inspiration_ids>  (1223) 
[69, 82]

>  <energy_score>  (1223) 
666.6923083611343

>  <distance_score>  (1223) 
14.8176483272332

>  <path>  (1223) 
/opt/xchem-fragalysis-2/maxwin/BulkDock/SCRATCH/511020/C11050-P82/C11050-P82.minimised.mol

>  <scratch_subdir>  (1223) 
/opt/xchem-fragalysis-2/maxwin/BulkDock/SCRATCH/511020/C11050-P82

>  <fragmenstein_runtime>  (1223) 
34.97100496292114

>  <fragmenstein_outcome>  (1223) 
too moved

>  <fragmenstein_mode>  (1223) 
expansion

>  <fragmenstein_error>  (1223) 


$$$$
C11051-P69
     RDKit          3D

 39 42  0  0  0  0  0  0  0  0999 V2000
  -10.7295   -9.0964   13.4229 O   0  0  0  0  0  0  0  0  0  0  0  0
   -9.7507   -9.5391   12.9556 C   0  0  0  0  0  0  0  0  0  0  0  0
   -9.2825   -8.3883   11.1408 C   0  0  0  0  0  0  0  0  0  0  0  0
   -9.8150   -6.1453   11.1406 C   0  0  0  0  0  0  0  0  0  0  0  0
   -9.1362   -5.0018    9.9972 C   0  0  0  0  0  0  0  0  0  0  0  0
   -7.5437   -5.4316    9.3957 C   0  0  0  0  0  0  0  0  0  0  0  0
   -7.1513   -7.2430    9.1173 C   0  0  0  0  0  0  0  0  0  0  0  0
   -8.2694   -6.0128    7.4132 S   0  0  0  0  0  0  0  0  0  0  0  0
   -9.4592   -7.9357    7.7548 C   0  0  0  0  0  0  0  0  0  0  0  0
   -8.9352   -8.9687    8.4882 N   0  0  0  0  0  0  0  0  0  0  0  0
   -8.0851   -8.7037    9.7327 C   0  0  0  0  0  0  0  0  0  0  0  0
   -9.2661  -11.0885   14.0185 N   0  0  0  0  0  0  0  0  0  0  0  0
   -8.3984  -11.1912   15.2271 C   0  0  0  0  0  0  0  0  0  0  0  0
   -8.0777  -12.2895   17.0233 C   0  0  0  0  0  0  0  0  0  0  0  0
   -8.6998  -13.0142   18.6845 N   0  0  0  0  0  0  0  0  0  0  0  0
   -8.6730  -14.9221   19.1879 C   0  0  0  0  0  0  0  0  0  0  0  0
   -8.0012  -15.7654   20.6670 C   0  0  0  0  0  0  0  0  0  0  0  0
   -6.8567  -17.0439   21.0655 C   0  0  0  0  0  0  0  0  0  0  0  0
   -6.3544  -17.8113   20.0916 C   0  0  0  0  0  0  0  0  0  0  0  0
   -6.8960  -17.2756   18.8891 C   0  0  0  0  0  0  0  0  0  0  0  0
   -8.0348  -16.0402   18.2953 N   0  0  0  0  0  0  0  0  0  0  0  0
  -10.0751  -12.1995   17.6147 C   0  0  0  0  0  0  0  0  0  0  0  0
  -10.1558  -12.0075   15.5102 C   0  0  0  0  0  0  0  0  0  0  0  0
  -10.5046   -5.5432   11.8329 H   0  0  0  0  0  0  0  0  0  0  0  0
   -9.4832   -4.0170    9.7588 H   0  0  0  0  0  0  0  0  0  0  0  0
   -6.9104   -5.1614   10.2256 H   0  0  0  0  0  0  0  0  0  0  0  0
  -10.2668   -7.9657    7.0241 H   0  0  0  0  0  0  0  0  0  0  0  0
   -7.8710  -10.2185   15.0706 H   0  0  0  0  0  0  0  0  0  0  0  0
   -8.0787  -11.8273   14.3916 H   0  0  0  0  0  0  0  0  0  0  0  0
   -7.6144  -13.2714   16.8286 H   0  0  0  0  0  0  0  0  0  0  0  0
   -7.4292  -11.6279   17.6256 H   0  0  0  0  0  0  0  0  0  0  0  0
   -7.9132  -15.7287   21.6852 H   0  0  0  0  0  0  0  0  0  0  0  0
   -6.7510  -17.3639   22.1054 H   0  0  0  0  0  0  0  0  0  0  0  0
   -5.6138  -18.5826   20.1849 H   0  0  0  0  0  0  0  0  0  0  0  0
   -5.9152  -17.2648   18.4214 H   0  0  0  0  0  0  0  0  0  0  0  0
  -10.4850  -11.3591   18.1796 H   0  0  0  0  0  0  0  0  0  0  0  0
  -10.7187  -12.8829   17.9241 H   0  0  0  0  0  0  0  0  0  0  0  0
  -10.2136  -12.9973   15.0712 H   0  0  0  0  0  0  0  0  0  0  0  0
  -11.0328  -11.3920   15.6748 H   0  0  0  0  0  0  0  0  0  0  0  0
  1  2  2  0
  2  3  1  0
  3  4  2  0
  4  5  1  0
  5  6  2  0
  6  7  1  0
  7  8  1  0
  8  9  1  0
  9 10  2  0
 10 11  1  0
  2 12  1  0
 12 13  1  0
 13 14  1  0
 14 15  1  0
 15 16  1  0
 16 17  2  0
 17 18  1  0
 18 19  2  0
 19 20  1  0
 20 21  2  0
 15 22  1  0
 22 23  1  0
 11  3  1  0
 23 12  1  0
 11  7  2  0
 21 16  1  0
  4 24  1  0
  5 25  1  0
  6 26  1  0
  9 27  1  0
 13 28  1  0
 13 29  1  0
 14 30  1  0
 14 31  1  0
 17 32  1  0
 18 33  1  0
 19 34  1  0
 20 35  1  0
 22 36  1  0
 22 37  1  0
 23 38  1  0
 23 39  1  0
M  END
>  <Energy>  (1224) 
2378.4863995597611

>  <compound_id>  (1224) 
11051

>  <target_id>  (1224) 
1

>  <reference_id>  (1224) 
69

>  <inspiration_ids>  (1224) 
[69, 82]

>  <energy_score>  (1224) 
2242.2137564580453

>  <distance_score>  (1224) 
11.008936712753247

>  <path>  (1224) 
/opt/xchem-fragalysis-2/maxwin/BulkDock/SCRATCH/511020/C11051-P69/C11051-P69.minimised.mol

>  <scratch_subdir>  (1224) 
/opt/xchem-fragalysis-2/maxwin/BulkDock/SCRATCH/511020/C11051-P69

>  <fragmenstein_runtime>  (1224) 
21.80677342414856

>  <fragmenstein_outcome>  (1224) 
too moved

>  <fragmenstein_mode>  (1224) 
expansion

>  <fragmenstein_error>  (1224) 


$$$$
C11051-P82
     RDKit          3D

 39 42  0  0  0  0  0  0  0  0999 V2000
   -5.8714   -9.9003   17.2341 O   0  0  0  0  0  0  0  0  0  0  0  0
   -6.7310  -10.4820   16.7001 C   0  0  0  0  0  0  0  0  0  0  0  0
   -7.0137   -9.7050   15.0405 C   0  0  0  0  0  0  0  0  0  0  0  0
   -6.1128   -8.5588   14.9771 C   0  0  0  0  0  0  0  0  0  0  0  0
   -5.6743   -7.9161   13.8227 C   0  0  0  0  0  0  0  0  0  0  0  0
   -6.0613   -8.4155   12.6034 C   0  0  0  0  0  0  0  0  0  0  0  0
   -7.0261   -9.4386   12.5918 C   0  0  0  0  0  0  0  0  0  0  0  0
   -7.6634  -10.1791   11.1655 S   0  0  0  0  0  0  0  0  0  0  0  0
   -8.6564  -11.1433   12.1478 C   0  0  0  0  0  0  0  0  0  0  0  0
   -8.5433  -10.9920   13.4479 N   0  0  0  0  0  0  0  0  0  0  0  0
   -7.5834  -10.0346   13.7520 C   0  0  0  0  0  0  0  0  0  0  0  0
   -7.4850  -12.0088   17.5629 N   0  0  0  0  0  0  0  0  0  0  0  0
   -8.9070  -12.1847   18.7196 C   0  0  0  0  0  0  0  0  0  0  0  0
   -9.1572  -13.7180   19.9882 C   0  0  0  0  0  0  0  0  0  0  0  0
   -8.3181  -15.4890   20.5822 N   0  0  0  0  0  0  0  0  0  0  0  0
   -8.1796  -16.5947   22.2674 C   0  0  0  0  0  0  0  0  0  0  0  0
   -9.5987  -16.3256   23.8300 C   0  0  0  0  0  0  0  0  0  0  0  0
  -10.3337  -17.6587   24.6582 C   0  0  0  0  0  0  0  0  0  0  0  0
   -9.7296  -19.1642   24.2025 C   0  0  0  0  0  0  0  0  0  0  0  0
   -8.3206  -19.3331   23.2045 C   0  0  0  0  0  0  0  0  0  0  0  0
   -7.7063  -18.1045   22.2021 N   0  0  0  0  0  0  0  0  0  0  0  0
   -7.9617  -13.7690   19.6833 C   0  0  0  0  0  0  0  0  0  0  0  0
   -7.1076  -12.6567   18.7569 C   0  0  0  0  0  0  0  0  0  0  0  0
   -5.6768   -8.1891   15.9083 H   0  0  0  0  0  0  0  0  0  0  0  0
   -4.9645   -7.0961   13.8887 H   0  0  0  0  0  0  0  0  0  0  0  0
   -5.6616   -8.0109   11.6784 H   0  0  0  0  0  0  0  0  0  0  0  0
   -9.3390  -11.8652   11.7198 H   0  0  0  0  0  0  0  0  0  0  0  0
   -9.7762  -12.3865   18.0713 H   0  0  0  0  0  0  0  0  0  0  0  0
   -9.2051  -11.2711   19.1969 H   0  0  0  0  0  0  0  0  0  0  0  0
  -10.0178  -14.0529   19.3569 H   0  0  0  0  0  0  0  0  0  0  0  0
   -9.4439  -13.2265   20.9768 H   0  0  0  0  0  0  0  0  0  0  0  0
   -9.0834  -15.8643   24.9198 H   0  0  0  0  0  0  0  0  0  0  0  0
  -11.1342  -17.5268   25.3726 H   0  0  0  0  0  0  0  0  0  0  0  0
  -10.3967  -19.9954   24.4085 H   0  0  0  0  0  0  0  0  0  0  0  0
   -7.9019  -20.3056   22.9487 H   0  0  0  0  0  0  0  0  0  0  0  0
   -8.1268  -14.2942   18.6493 H   0  0  0  0  0  0  0  0  0  0  0  0
   -7.0759  -13.6066   20.2058 H   0  0  0  0  0  0  0  0  0  0  0  0
   -7.1276  -11.8305   19.3930 H   0  0  0  0  0  0  0  0  0  0  0  0
   -6.0167  -12.6709   18.7336 H   0  0  0  0  0  0  0  0  0  0  0  0
  1  2  2  0
  2  3  1  0
  3  4  2  0
  4  5  1  0
  5  6  2  0
  6  7  1  0
  7  8  1  0
  8  9  1  0
  9 10  2  0
 10 11  1  0
  2 12  1  0
 12 13  1  0
 13 14  1  0
 14 15  1  0
 15 16  1  0
 16 17  2  0
 17 18  1  0
 18 19  2  0
 19 20  1  0
 20 21  2  0
 15 22  1  0
 22 23  1  0
 11  3  1  0
 23 12  1  0
 11  7  2  0
 21 16  1  0
  4 24  1  0
  5 25  1  0
  6 26  1  0
  9 27  1  0
 13 28  1  0
 13 29  1  0
 14 30  1  0
 14 31  1  0
 17 32  1  0
 18 33  1  0
 19 34  1  0
 20 35  1  0
 22 36  1  0
 22 37  1  0
 23 38  1  0
 23 39  1  0
M  END
>  <Energy>  (1225) 
1541.3054577686316

>  <compound_id>  (1225) 
11051

>  <target_id>  (1225) 
1

>  <reference_id>  (1225) 
82

>  <inspiration_ids>  (1225) 
[69, 82]

>  <energy_score>  (1225) 
1405.0328146669085

>  <distance_score>  (1225) 
10.681993491912642

>  <path>  (1225) 
/opt/xchem-fragalysis-2/maxwin/BulkDock/SCRATCH/511020/C11051-P82/C11051-P82.minimised.mol

>  <scratch_subdir>  (1225) 
/opt/xchem-fragalysis-2/maxwin/BulkDock/SCRATCH/511020/C11051-P82

>  <fragmenstein_runtime>  (1225) 
29.63664698600769

>  <fragmenstein_outcome>  (1225) 
too moved

>  <fragmenstein_mode>  (1225) 
expansion

>  <fragmenstein_error>  (1225) 


$$$$
C11052-P69
     RDKit          3D

 47 50  0  0  0  0  0  0  0  0999 V2000
   -8.9042  -12.2170   13.1444 C   0  0  0  0  0  0  0  0  0  0  0  0
   -8.2848  -11.4191   14.2019 N   0  0  0  0  0  0  0  0  0  0  0  0
   -8.3072  -12.0600   15.8801 C   0  0  0  0  0  0  0  0  0  0  0  0
   -7.7674  -13.5283   17.2374 C   0  0  0  0  0  0  0  0  0  0  0  0
   -8.0043  -13.1128   18.4027 O   0  0  0  0  0  0  0  0  0  0  0  0
   -7.2928  -15.4007   16.8868 N   0  0  0  0  0  0  0  0  0  0  0  0
   -7.2732  -16.5923   17.7919 C   0  0  0  0  0  0  0  0  0  0  0  0
   -6.5765  -17.4308   18.8560 C   0  0  0  0  0  0  0  0  0  0  0  0
   -5.1866  -17.4179   19.0921 N   0  0  0  0  0  0  0  0  0  0  0  0
   -5.2250  -18.0776   20.2965 C   0  0  0  0  0  0  0  0  0  0  0  0
   -5.6727  -19.3228   20.3331 C   0  0  0  0  0  0  0  0  0  0  0  0
   -6.7851  -19.4011   21.1494 C   0  0  0  0  0  0  0  0  0  0  0  0
   -6.8916  -18.9601   22.4233 C   0  0  0  0  0  0  0  0  0  0  0  0
   -6.2106  -17.8550   22.5037 C   0  0  0  0  0  0  0  0  0  0  0  0
   -5.6325  -17.3421   21.3703 N   0  0  0  0  0  0  0  0  0  0  0  0
   -4.4342  -17.1126   17.9306 C   0  0  0  0  0  0  0  0  0  0  0  0
   -5.4496  -15.8911   16.9257 C   0  0  0  0  0  0  0  0  0  0  0  0
   -7.4880  -10.3034   13.8702 C   0  0  0  0  0  0  0  0  0  0  0  0
   -6.1164  -10.2403   13.5900 N   0  0  0  0  0  0  0  0  0  0  0  0
   -5.5776   -8.8561   12.8411 C   0  0  0  0  0  0  0  0  0  0  0  0
   -4.4346   -8.5691   12.0295 C   0  0  0  0  0  0  0  0  0  0  0  0
   -4.1756   -7.2931   11.6387 C   0  0  0  0  0  0  0  0  0  0  0  0
   -5.0023   -6.3362   12.1551 C   0  0  0  0  0  0  0  0  0  0  0  0
   -6.1507   -6.5469   12.9112 C   0  0  0  0  0  0  0  0  0  0  0  0
   -6.5226   -7.8919   13.0506 C   0  0  0  0  0  0  0  0  0  0  0  0
   -8.1782   -8.8596   13.8903 S   0  0  0  0  0  0  0  0  0  0  0  0
   -9.5907  -11.6102   12.5597 H   0  0  0  0  0  0  0  0  0  0  0  0
   -8.1967  -12.6048   12.4289 H   0  0  0  0  0  0  0  0  0  0  0  0
   -9.4117  -13.1069   13.5086 H   0  0  0  0  0  0  0  0  0  0  0  0
   -9.3964  -11.9673   15.7005 H   0  0  0  0  0  0  0  0  0  0  0  0
   -8.7244  -12.9742   15.2520 H   0  0  0  0  0  0  0  0  0  0  0  0
   -7.9288  -17.2818   17.2423 H   0  0  0  0  0  0  0  0  0  0  0  0
   -8.1118  -16.1699   18.3609 H   0  0  0  0  0  0  0  0  0  0  0  0
   -6.8918  -18.4474   18.6587 H   0  0  0  0  0  0  0  0  0  0  0  0
   -6.8771  -16.9261   19.7409 H   0  0  0  0  0  0  0  0  0  0  0  0
   -5.6164  -19.8360   19.3987 H   0  0  0  0  0  0  0  0  0  0  0  0
   -7.6529  -19.8813   20.7904 H   0  0  0  0  0  0  0  0  0  0  0  0
   -7.5560  -19.3601   23.1577 H   0  0  0  0  0  0  0  0  0  0  0  0
   -6.1169  -17.3337   23.4413 H   0  0  0  0  0  0  0  0  0  0  0  0
   -4.1925  -18.0110   17.3614 H   0  0  0  0  0  0  0  0  0  0  0  0
   -3.4492  -16.6952   18.1387 H   0  0  0  0  0  0  0  0  0  0  0  0
   -5.0004  -15.1770   17.5771 H   0  0  0  0  0  0  0  0  0  0  0  0
   -5.0381  -16.1263   15.9494 H   0  0  0  0  0  0  0  0  0  0  0  0
   -3.7934   -9.3472   11.6448 H   0  0  0  0  0  0  0  0  0  0  0  0
   -3.3296   -7.0535   11.0046 H   0  0  0  0  0  0  0  0  0  0  0  0
   -4.7621   -5.3617   11.8852 H   0  0  0  0  0  0  0  0  0  0  0  0
   -6.7344   -5.7592   13.3594 H   0  0  0  0  0  0  0  0  0  0  0  0
  1  2  1  0
  2  3  1  0
  3  4  1  0
  4  5  2  0
  4  6  1  0
  6  7  1  0
  7  8  1  0
  8  9  1  0
  9 10  1  0
 10 11  2  0
 11 12  1  0
 12 13  2  0
 13 14  1  0
 14 15  2  0
  9 16  1  0
 16 17  1  0
  2 18  1  0
 18 19  2  0
 19 20  1  0
 20 21  2  0
 21 22  1  0
 22 23  2  0
 23 24  1  0
 24 25  2  0
 25 26  1  0
 17  6  1  0
 26 18  1  0
 15 10  1  0
 25 20  1  0
  1 27  1  0
  1 28  1  0
  1 29  1  0
  3 30  1  0
  3 31  1  0
  7 32  1  0
  7 33  1  0
  8 34  1  0
  8 35  1  0
 11 36  1  0
 12 37  1  0
 13 38  1  0
 14 39  1  0
 16 40  1  0
 16 41  1  0
 17 42  1  0
 17 43  1  0
 21 44  1  0
 22 45  1  0
 23 46  1  0
 24 47  1  0
M  END
>  <Energy>  (1226) 
781.32787231622171

>  <compound_id>  (1226) 
11052

>  <target_id>  (1226) 
1

>  <reference_id>  (1226) 
69

>  <inspiration_ids>  (1226) 
[69, 82]

>  <energy_score>  (1226) 
631.8078574753029

>  <distance_score>  (1226) 
11.230828034581538

>  <path>  (1226) 
/opt/xchem-fragalysis-2/maxwin/BulkDock/SCRATCH/511020/C11052-P69/C11052-P69.minimised.mol

>  <scratch_subdir>  (1226) 
/opt/xchem-fragalysis-2/maxwin/BulkDock/SCRATCH/511020/C11052-P69

>  <fragmenstein_runtime>  (1226) 
35.295037508010864

>  <fragmenstein_outcome>  (1226) 
too moved

>  <fragmenstein_mode>  (1226) 
expansion

>  <fragmenstein_error>  (1226) 


$$$$
C11052-P82
     RDKit          3D

 47 50  0  0  0  0  0  0  0  0999 V2000
   -8.9064  -12.1537   13.8510 C   0  0  0  0  0  0  0  0  0  0  0  0
   -8.4765  -11.1906   14.9002 N   0  0  0  0  0  0  0  0  0  0  0  0
   -8.0819  -11.9788   16.7078 C   0  0  0  0  0  0  0  0  0  0  0  0
   -8.9873  -12.8225   18.0201 C   0  0  0  0  0  0  0  0  0  0  0  0
  -10.0860  -12.3765   18.2765 O   0  0  0  0  0  0  0  0  0  0  0  0
   -8.1759  -14.2770   18.6251 N   0  0  0  0  0  0  0  0  0  0  0  0
   -8.6799  -15.2982   19.7552 C   0  0  0  0  0  0  0  0  0  0  0  0
   -7.5259  -16.4787   20.7811 C   0  0  0  0  0  0  0  0  0  0  0  0
   -6.7876  -17.6907   20.2971 N   0  0  0  0  0  0  0  0  0  0  0  0
   -6.7932  -18.5889   21.4177 C   0  0  0  0  0  0  0  0  0  0  0  0
   -6.2678  -18.3528   22.6263 C   0  0  0  0  0  0  0  0  0  0  0  0
   -6.1959  -19.2118   23.8229 C   0  0  0  0  0  0  0  0  0  0  0  0
   -6.7869  -20.4194   23.8958 C   0  0  0  0  0  0  0  0  0  0  0  0
   -7.7705  -20.2518   23.0507 C   0  0  0  0  0  0  0  0  0  0  0  0
   -7.6016  -19.4937   21.8094 N   0  0  0  0  0  0  0  0  0  0  0  0
   -7.0026  -17.5564   18.7100 C   0  0  0  0  0  0  0  0  0  0  0  0
   -8.1520  -16.0755   17.9476 C   0  0  0  0  0  0  0  0  0  0  0  0
   -7.4336  -10.0318   14.0939 C   0  0  0  0  0  0  0  0  0  0  0  0
   -7.3649   -8.8702   13.3591 N   0  0  0  0  0  0  0  0  0  0  0  0
   -5.8377   -8.4097   12.4744 C   0  0  0  0  0  0  0  0  0  0  0  0
   -5.4882   -7.6512   11.2578 C   0  0  0  0  0  0  0  0  0  0  0  0
   -4.2007   -7.0851   11.0299 C   0  0  0  0  0  0  0  0  0  0  0  0
   -3.1487   -7.4318   11.8139 C   0  0  0  0  0  0  0  0  0  0  0  0
   -3.3943   -8.4275   12.7304 C   0  0  0  0  0  0  0  0  0  0  0  0
   -4.7385   -9.0170   12.9360 C   0  0  0  0  0  0  0  0  0  0  0  0
   -5.4803  -10.4670   13.6962 S   0  0  0  0  0  0  0  0  0  0  0  0
   -9.4954  -12.9630   14.2695 H   0  0  0  0  0  0  0  0  0  0  0  0
   -8.0684  -12.6000   13.3108 H   0  0  0  0  0  0  0  0  0  0  0  0
   -9.4324  -11.6300   13.0521 H   0  0  0  0  0  0  0  0  0  0  0  0
   -7.3149  -11.3567   17.2619 H   0  0  0  0  0  0  0  0  0  0  0  0
   -7.9306  -13.0242   16.4666 H   0  0  0  0  0  0  0  0  0  0  0  0
   -9.6202  -15.6977   19.3928 H   0  0  0  0  0  0  0  0  0  0  0  0
   -8.6206  -14.3389   20.2856 H   0  0  0  0  0  0  0  0  0  0  0  0
   -7.9096  -16.7045   21.7520 H   0  0  0  0  0  0  0  0  0  0  0  0
   -6.5618  -16.1251   20.6782 H   0  0  0  0  0  0  0  0  0  0  0  0
   -5.5922  -17.5655   22.5993 H   0  0  0  0  0  0  0  0  0  0  0  0
   -5.5746  -18.9243   24.6656 H   0  0  0  0  0  0  0  0  0  0  0  0
   -6.7132  -21.1233   24.7002 H   0  0  0  0  0  0  0  0  0  0  0  0
   -8.6779  -20.8536   23.0814 H   0  0  0  0  0  0  0  0  0  0  0  0
   -5.9249  -17.4896   18.4837 H   0  0  0  0  0  0  0  0  0  0  0  0
   -7.2317  -18.5106   18.2458 H   0  0  0  0  0  0  0  0  0  0  0  0
   -7.5863  -15.9757   17.0026 H   0  0  0  0  0  0  0  0  0  0  0  0
   -9.0969  -16.3828   17.6015 H   0  0  0  0  0  0  0  0  0  0  0  0
   -6.1951   -7.6141   10.4454 H   0  0  0  0  0  0  0  0  0  0  0  0
   -3.9833   -6.3651   10.2521 H   0  0  0  0  0  0  0  0  0  0  0  0
   -2.1574   -7.0163   11.6795 H   0  0  0  0  0  0  0  0  0  0  0  0
   -2.5548   -8.7383   13.3522 H   0  0  0  0  0  0  0  0  0  0  0  0
  1  2  1  0
  2  3  1  0
  3  4  1  0
  4  5  2  0
  4  6  1  0
  6  7  1  0
  7  8  1  0
  8  9  1  0
  9 10  1  0
 10 11  2  0
 11 12  1  0
 12 13  2  0
 13 14  1  0
 14 15  2  0
  9 16  1  0
 16 17  1  0
  2 18  1  0
 18 19  2  0
 19 20  1  0
 20 21  2  0
 21 22  1  0
 22 23  2  0
 23 24  1  0
 24 25  2  0
 25 26  1  0
 17  6  1  0
 26 18  1  0
 15 10  1  0
 25 20  1  0
  1 27  1  0
  1 28  1  0
  1 29  1  0
  3 30  1  0
  3 31  1  0
  7 32  1  0
  7 33  1  0
  8 34  1  0
  8 35  1  0
 11 36  1  0
 12 37  1  0
 13 38  1  0
 14 39  1  0
 16 40  1  0
 16 41  1  0
 17 42  1  0
 17 43  1  0
 21 44  1  0
 22 45  1  0
 23 46  1  0
 24 47  1  0
M  END
>  <Energy>  (1227) 
839.79147325888607

>  <compound_id>  (1227) 
11052

>  <target_id>  (1227) 
1

>  <reference_id>  (1227) 
82

>  <inspiration_ids>  (1227) 
[69, 82]

>  <energy_score>  (1227) 
690.2714584179694

>  <distance_score>  (1227) 
10.563588908126267

>  <path>  (1227) 
/opt/xchem-fragalysis-2/maxwin/BulkDock/SCRATCH/511020/C11052-P82/C11052-P82.minimised.mol

>  <scratch_subdir>  (1227) 
/opt/xchem-fragalysis-2/maxwin/BulkDock/SCRATCH/511020/C11052-P82

>  <fragmenstein_runtime>  (1227) 
27.98988151550293

>  <fragmenstein_outcome>  (1227) 
too moved

>  <fragmenstein_mode>  (1227) 
expansion

>  <fragmenstein_error>  (1227) 


$$$$
C6702-P69
     RDKit          3D

 40 43  0  0  0  0  0  0  0  0999 V2000
   -8.9044  -24.6436   18.5851 C   0  0  0  0  0  0  0  0  0  0  0  0
   -7.9768  -24.1669   19.4907 C   0  0  0  0  0  0  0  0  0  0  0  0
   -6.9111  -23.4452   19.1129 N   0  0  0  0  0  0  0  0  0  0  0  0
   -6.8002  -23.1782   17.7716 C   0  0  0  0  0  0  0  0  0  0  0  0
   -7.6765  -23.5713   16.7398 C   0  0  0  0  0  0  0  0  0  0  0  0
   -7.4824  -23.1997   15.3896 N   0  0  0  0  0  0  0  0  0  0  0  0
   -8.6045  -23.0574   14.4152 C   0  0  0  0  0  0  0  0  0  0  0  0
   -8.1746  -22.5183   12.9559 C   0  0  0  0  0  0  0  0  0  0  0  0
   -6.9069  -21.7317   12.9003 N   0  0  0  0  0  0  0  0  0  0  0  0
   -6.5531  -21.1065   11.5321 C   0  0  0  0  0  0  0  0  0  0  0  0
   -6.6726  -19.4914   11.1464 C   0  0  0  0  0  0  0  0  0  0  0  0
   -5.6484  -18.6492   10.9728 N   0  0  0  0  0  0  0  0  0  0  0  0
   -6.0237  -17.4355   10.3356 C   0  0  0  0  0  0  0  0  0  0  0  0
   -5.1923  -16.3261   10.0010 C   0  0  0  0  0  0  0  0  0  0  0  0
   -5.7147  -15.1777    9.3687 C   0  0  0  0  0  0  0  0  0  0  0  0
   -7.0625  -15.1165    9.0408 C   0  0  0  0  0  0  0  0  0  0  0  0
   -7.9051  -16.1987    9.3435 C   0  0  0  0  0  0  0  0  0  0  0  0
   -7.3729  -17.3439   10.0024 C   0  0  0  0  0  0  0  0  0  0  0  0
   -8.1637  -18.8016   10.5459 S   0  0  0  0  0  0  0  0  0  0  0  0
   -5.8872  -22.7167   13.4072 C   0  0  0  0  0  0  0  0  0  0  0  0
   -6.2078  -23.5619   14.7363 C   0  0  0  0  0  0  0  0  0  0  0  0
   -8.7510  -24.3318   17.2137 C   0  0  0  0  0  0  0  0  0  0  0  0
   -9.7411  -25.2466   18.9221 H   0  0  0  0  0  0  0  0  0  0  0  0
   -8.0621  -24.3569   20.5525 H   0  0  0  0  0  0  0  0  0  0  0  0
   -5.9345  -22.5658   17.5370 H   0  0  0  0  0  0  0  0  0  0  0  0
   -9.1036  -24.0237   14.2781 H   0  0  0  0  0  0  0  0  0  0  0  0
   -9.3344  -22.3559   14.8282 H   0  0  0  0  0  0  0  0  0  0  0  0
   -8.0795  -23.3951   12.2995 H   0  0  0  0  0  0  0  0  0  0  0  0
   -9.0113  -21.9414   12.5440 H   0  0  0  0  0  0  0  0  0  0  0  0
   -5.4854  -21.3025   11.3594 H   0  0  0  0  0  0  0  0  0  0  0  0
   -7.0913  -21.6500   10.7445 H   0  0  0  0  0  0  0  0  0  0  0  0
   -4.1379  -16.3764   10.2588 H   0  0  0  0  0  0  0  0  0  0  0  0
   -5.0546  -14.3450    9.1396 H   0  0  0  0  0  0  0  0  0  0  0  0
   -7.4680  -14.2338    8.5529 H   0  0  0  0  0  0  0  0  0  0  0  0
   -8.9625  -16.1566    9.0979 H   0  0  0  0  0  0  0  0  0  0  0  0
   -4.9310  -22.2016   13.5521 H   0  0  0  0  0  0  0  0  0  0  0  0
   -5.6880  -23.4519   12.6138 H   0  0  0  0  0  0  0  0  0  0  0  0
   -5.3559  -23.4643   15.4185 H   0  0  0  0  0  0  0  0  0  0  0  0
   -6.2605  -24.6212   14.4526 H   0  0  0  0  0  0  0  0  0  0  0  0
   -9.4905  -24.7139   16.5164 H   0  0  0  0  0  0  0  0  0  0  0  0
  1  2  2  0
  2  3  1  0
  3  4  2  0
  4  5  1  0
  5  6  1  0
  6  7  1  0
  7  8  1  0
  8  9  1  0
  9 10  1  0
 10 11  1  0
 11 12  2  0
 12 13  1  0
 13 14  2  0
 14 15  1  0
 15 16  2  0
 16 17  1  0
 17 18  2  0
 18 19  1  0
  9 20  1  0
 20 21  1  0
  5 22  2  0
 22  1  1  0
 21  6  1  0
 19 11  1  0
 18 13  1  0
  1 23  1  0
  2 24  1  0
  4 25  1  0
  7 26  1  0
  7 27  1  0
  8 28  1  0
  8 29  1  0
 10 30  1  0
 10 31  1  0
 14 32  1  0
 15 33  1  0
 16 34  1  0
 17 35  1  0
 20 36  1  0
 20 37  1  0
 21 38  1  0
 21 39  1  0
 22 40  1  0
M  END
>  <Energy>  (1228) 
191.92396728002873

>  <compound_id>  (1228) 
6702

>  <target_id>  (1228) 
1

>  <reference_id>  (1228) 
69

>  <inspiration_ids>  (1228) 
[69, 82]

>  <energy_score>  (1228) 
-40.38877651865312

>  <distance_score>  (1228) 
15.219904390142458

>  <path>  (1228) 
/opt/xchem-fragalysis-2/maxwin/BulkDock/SCRATCH/511020/C6702-P69/C6702-P69.minimised.mol

>  <scratch_subdir>  (1228) 
/opt/xchem-fragalysis-2/maxwin/BulkDock/SCRATCH/511020/C6702-P69

>  <fragmenstein_runtime>  (1228) 
31.988444089889526

>  <fragmenstein_outcome>  (1228) 
too moved

>  <fragmenstein_mode>  (1228) 
expansion

>  <fragmenstein_error>  (1228) 


$$$$
C6702-P82
     RDKit          3D

 40 43  0  0  0  0  0  0  0  0999 V2000
   -7.3673  -22.6939   21.3686 C   0  0  0  0  0  0  0  0  0  0  0  0
   -6.3125  -22.8770   22.2398 C   0  0  0  0  0  0  0  0  0  0  0  0
   -5.4238  -21.9070   22.5298 N   0  0  0  0  0  0  0  0  0  0  0  0
   -5.6215  -20.6993   21.9234 C   0  0  0  0  0  0  0  0  0  0  0  0
   -6.6172  -20.3989   20.9864 C   0  0  0  0  0  0  0  0  0  0  0  0
   -6.7339  -19.1329   20.3936 N   0  0  0  0  0  0  0  0  0  0  0  0
   -6.8793  -18.9582   18.9540 C   0  0  0  0  0  0  0  0  0  0  0  0
   -7.4322  -17.3279   18.2645 C   0  0  0  0  0  0  0  0  0  0  0  0
   -8.3504  -15.9143   19.0266 N   0  0  0  0  0  0  0  0  0  0  0  0
   -8.1483  -13.8958   18.9206 C   0  0  0  0  0  0  0  0  0  0  0  0
   -7.1175  -12.3345   18.2640 C   0  0  0  0  0  0  0  0  0  0  0  0
   -7.3972  -11.2611   17.4977 N   0  0  0  0  0  0  0  0  0  0  0  0
   -6.5018  -10.0844   16.6805 C   0  0  0  0  0  0  0  0  0  0  0  0
   -6.7395   -8.9212   15.8235 C   0  0  0  0  0  0  0  0  0  0  0  0
   -5.7203   -8.0422   15.4157 C   0  0  0  0  0  0  0  0  0  0  0  0
   -4.4311   -8.2518   15.8572 C   0  0  0  0  0  0  0  0  0  0  0  0
   -4.1542   -9.3719   16.6487 C   0  0  0  0  0  0  0  0  0  0  0  0
   -5.2318  -10.3173   16.9634 C   0  0  0  0  0  0  0  0  0  0  0  0
   -5.3384  -11.9150   17.9566 S   0  0  0  0  0  0  0  0  0  0  0  0
   -7.3449  -16.5812   20.5601 C   0  0  0  0  0  0  0  0  0  0  0  0
   -7.0408  -18.0438   21.2864 C   0  0  0  0  0  0  0  0  0  0  0  0
   -7.4913  -21.4587   20.7208 C   0  0  0  0  0  0  0  0  0  0  0  0
   -8.0674  -23.4936   21.1615 H   0  0  0  0  0  0  0  0  0  0  0  0
   -6.1491  -23.8226   22.7467 H   0  0  0  0  0  0  0  0  0  0  0  0
   -4.8969  -19.9389   22.2051 H   0  0  0  0  0  0  0  0  0  0  0  0
   -7.4451  -19.7961   18.5307 H   0  0  0  0  0  0  0  0  0  0  0  0
   -5.8501  -19.0925   18.5816 H   0  0  0  0  0  0  0  0  0  0  0  0
   -6.3478  -17.3081   18.3946 H   0  0  0  0  0  0  0  0  0  0  0  0
   -7.9063  -17.4213   17.2911 H   0  0  0  0  0  0  0  0  0  0  0  0
   -8.0049  -14.0252   17.8534 H   0  0  0  0  0  0  0  0  0  0  0  0
   -9.0820  -13.4750   19.2927 H   0  0  0  0  0  0  0  0  0  0  0  0
   -7.7225   -8.6749   15.4339 H   0  0  0  0  0  0  0  0  0  0  0  0
   -5.9571   -7.1936   14.7796 H   0  0  0  0  0  0  0  0  0  0  0  0
   -3.6325   -7.5687   15.5825 H   0  0  0  0  0  0  0  0  0  0  0  0
   -3.1462   -9.5828   16.9961 H   0  0  0  0  0  0  0  0  0  0  0  0
   -6.3234  -16.5153   20.3234 H   0  0  0  0  0  0  0  0  0  0  0  0
   -7.8919  -16.1363   21.3039 H   0  0  0  0  0  0  0  0  0  0  0  0
   -6.1487  -17.9369   21.9092 H   0  0  0  0  0  0  0  0  0  0  0  0
   -7.8171  -18.2689   22.0043 H   0  0  0  0  0  0  0  0  0  0  0  0
   -8.3149  -21.3175   20.0271 H   0  0  0  0  0  0  0  0  0  0  0  0
  1  2  2  0
  2  3  1  0
  3  4  2  0
  4  5  1  0
  5  6  1  0
  6  7  1  0
  7  8  1  0
  8  9  1  0
  9 10  1  0
 10 11  1  0
 11 12  2  0
 12 13  1  0
 13 14  2  0
 14 15  1  0
 15 16  2  0
 16 17  1  0
 17 18  2  0
 18 19  1  0
  9 20  1  0
 20 21  1  0
  5 22  2  0
 22  1  1  0
 21  6  1  0
 19 11  1  0
 18 13  1  0
  1 23  1  0
  2 24  1  0
  4 25  1  0
  7 26  1  0
  7 27  1  0
  8 28  1  0
  8 29  1  0
 10 30  1  0
 10 31  1  0
 14 32  1  0
 15 33  1  0
 16 34  1  0
 17 35  1  0
 20 36  1  0
 20 37  1  0
 21 38  1  0
 21 39  1  0
 22 40  1  0
M  END
>  <Energy>  (1229) 
671.22839495181006

>  <compound_id>  (1229) 
6702

>  <target_id>  (1229) 
1

>  <reference_id>  (1229) 
82

>  <inspiration_ids>  (1229) 
[69, 82]

>  <energy_score>  (1229) 
438.9156511531113

>  <distance_score>  (1229) 
12.369958184943718

>  <path>  (1229) 
/opt/xchem-fragalysis-2/maxwin/BulkDock/SCRATCH/511020/C6702-P82/C6702-P82.minimised.mol

>  <scratch_subdir>  (1229) 
/opt/xchem-fragalysis-2/maxwin/BulkDock/SCRATCH/511020/C6702-P82

>  <fragmenstein_runtime>  (1229) 
19.727500677108765

>  <fragmenstein_outcome>  (1229) 
too moved

>  <fragmenstein_mode>  (1229) 
expansion

>  <fragmenstein_error>  (1229) 


$$$$
C11053-P69
     RDKit          3D

 37 40  0  0  0  0  0  0  0  0999 V2000
   -8.8378  -15.8826   26.5224 C   0  0  0  0  0  0  0  0  0  0  0  0
   -9.7999  -16.5328   25.8351 C   0  0  0  0  0  0  0  0  0  0  0  0
   -9.5834  -16.3088   24.1144 C   0  0  0  0  0  0  0  0  0  0  0  0
   -8.0566  -16.4250   22.6569 C   0  0  0  0  0  0  0  0  0  0  0  0
   -8.0044  -15.4470   20.9421 N   0  0  0  0  0  0  0  0  0  0  0  0
   -8.7389  -14.8104   19.2702 C   0  0  0  0  0  0  0  0  0  0  0  0
   -8.3682  -12.9714   18.2523 C   0  0  0  0  0  0  0  0  0  0  0  0
   -7.3246  -11.6550   17.9074 N   0  0  0  0  0  0  0  0  0  0  0  0
   -6.7257  -10.3431   16.6794 C   0  0  0  0  0  0  0  0  0  0  0  0
   -6.7320   -8.9608   17.0757 N   0  0  0  0  0  0  0  0  0  0  0  0
   -6.8798   -7.4255   16.4816 C   0  0  0  0  0  0  0  0  0  0  0  0
   -6.6741   -6.1489   17.1190 C   0  0  0  0  0  0  0  0  0  0  0  0
   -6.7314   -4.9409   16.4293 C   0  0  0  0  0  0  0  0  0  0  0  0
   -6.8746   -4.9529   15.0683 C   0  0  0  0  0  0  0  0  0  0  0  0
   -7.0627   -6.1596   14.3808 C   0  0  0  0  0  0  0  0  0  0  0  0
   -7.2498   -7.4322   15.0726 C   0  0  0  0  0  0  0  0  0  0  0  0
   -7.8551   -9.6203   14.7294 S   0  0  0  0  0  0  0  0  0  0  0  0
   -6.8704  -12.1780   19.2743 C   0  0  0  0  0  0  0  0  0  0  0  0
   -8.0630  -13.5402   20.2003 C   0  0  0  0  0  0  0  0  0  0  0  0
   -7.0648  -16.0484   24.0369 N   0  0  0  0  0  0  0  0  0  0  0  0
   -7.8421  -15.4629   25.5694 C   0  0  0  0  0  0  0  0  0  0  0  0
   -8.9598  -15.4611   27.5072 H   0  0  0  0  0  0  0  0  0  0  0  0
  -10.8015  -16.7635   26.1884 H   0  0  0  0  0  0  0  0  0  0  0  0
  -10.7464  -16.5054   23.8674 H   0  0  0  0  0  0  0  0  0  0  0  0
   -8.3640  -15.5941   18.5643 H   0  0  0  0  0  0  0  0  0  0  0  0
   -9.7864  -15.0501   19.2852 H   0  0  0  0  0  0  0  0  0  0  0  0
   -9.3506  -12.4660   18.2593 H   0  0  0  0  0  0  0  0  0  0  0  0
   -7.8224  -13.3945   17.4131 H   0  0  0  0  0  0  0  0  0  0  0  0
   -6.5044   -6.0741   18.1881 H   0  0  0  0  0  0  0  0  0  0  0  0
   -6.5831   -4.0042   16.9605 H   0  0  0  0  0  0  0  0  0  0  0  0
   -6.7805   -4.0117   14.5423 H   0  0  0  0  0  0  0  0  0  0  0  0
   -6.8420   -6.1086   13.3174 H   0  0  0  0  0  0  0  0  0  0  0  0
   -5.8562  -12.4898   19.0663 H   0  0  0  0  0  0  0  0  0  0  0  0
   -6.6056  -11.3801   19.9430 H   0  0  0  0  0  0  0  0  0  0  0  0
   -8.9715  -13.0891   20.5930 H   0  0  0  0  0  0  0  0  0  0  0  0
   -7.0836  -13.4028   20.4865 H   0  0  0  0  0  0  0  0  0  0  0  0
   -7.4458  -14.4921   25.8437 H   0  0  0  0  0  0  0  0  0  0  0  0
  1  2  2  0
  2  3  1  0
  3  4  2  0
  4  5  1  0
  5  6  1  0
  6  7  1  0
  7  8  1  0
  8  9  1  0
  9 10  2  0
 10 11  1  0
 11 12  2  0
 12 13  1  0
 13 14  2  0
 14 15  1  0
 15 16  2  0
 16 17  1  0
  8 18  1  0
 18 19  1  0
  4 20  1  0
 20 21  2  0
 21  1  1  0
 19  5  1  0
 17  9  1  0
 16 11  1  0
  1 22  1  0
  2 23  1  0
  3 24  1  0
  6 25  1  0
  6 26  1  0
  7 27  1  0
  7 28  1  0
 12 29  1  0
 13 30  1  0
 14 31  1  0
 15 32  1  0
 18 33  1  0
 18 34  1  0
 19 35  1  0
 19 36  1  0
 21 37  1  0
M  END
>  <Energy>  (1230) 
1675.6318230795248

>  <compound_id>  (1230) 
11053

>  <target_id>  (1230) 
1

>  <reference_id>  (1230) 
69

>  <inspiration_ids>  (1230) 
[69, 82]

>  <energy_score>  (1230) 
1541.388701656683

>  <distance_score>  (1230) 
10.849616308101957

>  <path>  (1230) 
/opt/xchem-fragalysis-2/maxwin/BulkDock/SCRATCH/511020/C11053-P69/C11053-P69.minimised.mol

>  <scratch_subdir>  (1230) 
/opt/xchem-fragalysis-2/maxwin/BulkDock/SCRATCH/511020/C11053-P69

>  <fragmenstein_runtime>  (1230) 
14.481517791748047

>  <fragmenstein_outcome>  (1230) 
too moved

>  <fragmenstein_mode>  (1230) 
expansion

>  <fragmenstein_error>  (1230) 


$$$$
C11053-P82
     RDKit          3D

 37 40  0  0  0  0  0  0  0  0999 V2000
   -9.7246  -19.2247   24.3177 C   0  0  0  0  0  0  0  0  0  0  0  0
  -10.3081  -17.7925   24.8288 C   0  0  0  0  0  0  0  0  0  0  0  0
   -9.7031  -16.4898   23.8955 C   0  0  0  0  0  0  0  0  0  0  0  0
   -8.2204  -16.7381   22.3589 C   0  0  0  0  0  0  0  0  0  0  0  0
   -8.1763  -15.6728   20.6883 N   0  0  0  0  0  0  0  0  0  0  0  0
   -9.2148  -15.0481   19.2382 C   0  0  0  0  0  0  0  0  0  0  0  0
   -9.6220  -13.0607   18.6900 C   0  0  0  0  0  0  0  0  0  0  0  0
   -8.6172  -12.4156   17.3091 N   0  0  0  0  0  0  0  0  0  0  0  0
   -8.7801  -12.1383   15.5095 C   0  0  0  0  0  0  0  0  0  0  0  0
   -8.6150  -10.9979   14.7412 N   0  0  0  0  0  0  0  0  0  0  0  0
   -8.5232  -10.9876   13.3574 C   0  0  0  0  0  0  0  0  0  0  0  0
   -8.0002   -9.9667   12.5380 C   0  0  0  0  0  0  0  0  0  0  0  0
   -8.0892  -10.0626   11.1458 C   0  0  0  0  0  0  0  0  0  0  0  0
   -8.7443  -11.1375   10.5746 C   0  0  0  0  0  0  0  0  0  0  0  0
   -9.2155  -12.1816   11.3811 C   0  0  0  0  0  0  0  0  0  0  0  0
   -9.0191  -12.1200   12.7805 C   0  0  0  0  0  0  0  0  0  0  0  0
   -9.2922  -13.3066   14.0325 S   0  0  0  0  0  0  0  0  0  0  0  0
   -7.6513  -13.0649   18.0899 C   0  0  0  0  0  0  0  0  0  0  0  0
   -8.0433  -13.7868   19.9218 C   0  0  0  0  0  0  0  0  0  0  0  0
   -7.7080  -18.2164   22.2964 N   0  0  0  0  0  0  0  0  0  0  0  0
   -8.3564  -19.4151   23.2955 C   0  0  0  0  0  0  0  0  0  0  0  0
  -10.4417  -20.0443   24.4180 H   0  0  0  0  0  0  0  0  0  0  0  0
  -11.2616  -17.7099   25.3412 H   0  0  0  0  0  0  0  0  0  0  0  0
  -10.9560  -16.4201   23.4792 H   0  0  0  0  0  0  0  0  0  0  0  0
  -10.1010  -15.6366   19.3044 H   0  0  0  0  0  0  0  0  0  0  0  0
   -8.6496  -15.5862   18.4421 H   0  0  0  0  0  0  0  0  0  0  0  0
   -9.2848  -12.2813   19.3014 H   0  0  0  0  0  0  0  0  0  0  0  0
  -10.5758  -12.8075   18.2780 H   0  0  0  0  0  0  0  0  0  0  0  0
   -7.5197   -9.1175   13.0062 H   0  0  0  0  0  0  0  0  0  0  0  0
   -7.6692   -9.2877   10.5137 H   0  0  0  0  0  0  0  0  0  0  0  0
   -8.8579  -11.1955    9.4951 H   0  0  0  0  0  0  0  0  0  0  0  0
   -9.6771  -13.0550   10.9295 H   0  0  0  0  0  0  0  0  0  0  0  0
   -7.4735  -13.8215   17.3093 H   0  0  0  0  0  0  0  0  0  0  0  0
   -6.8410  -12.3463   18.2741 H   0  0  0  0  0  0  0  0  0  0  0  0
   -7.3576  -12.9616   20.1367 H   0  0  0  0  0  0  0  0  0  0  0  0
   -7.0300  -13.8228   20.1651 H   0  0  0  0  0  0  0  0  0  0  0  0
   -7.9829  -20.4006   23.0144 H   0  0  0  0  0  0  0  0  0  0  0  0
  1  2  2  0
  2  3  1  0
  3  4  2  0
  4  5  1  0
  5  6  1  0
  6  7  1  0
  7  8  1  0
  8  9  1  0
  9 10  2  0
 10 11  1  0
 11 12  2  0
 12 13  1  0
 13 14  2  0
 14 15  1  0
 15 16  2  0
 16 17  1  0
  8 18  1  0
 18 19  1  0
  4 20  1  0
 20 21  2  0
 21  1  1  0
 19  5  1  0
 17  9  1  0
 16 11  1  0
  1 22  1  0
  2 23  1  0
  3 24  1  0
  6 25  1  0
  6 26  1  0
  7 27  1  0
  7 28  1  0
 12 29  1  0
 13 30  1  0
 14 31  1  0
 15 32  1  0
 18 33  1  0
 18 34  1  0
 19 35  1  0
 19 36  1  0
 21 37  1  0
M  END
>  <Energy>  (1231) 
1348.2965745284414

>  <compound_id>  (1231) 
11053

>  <target_id>  (1231) 
1

>  <reference_id>  (1231) 
82

>  <inspiration_ids>  (1231) 
[69, 82]

>  <energy_score>  (1231) 
1214.0534531055705

>  <distance_score>  (1231) 
11.513009347102027

>  <path>  (1231) 
/opt/xchem-fragalysis-2/maxwin/BulkDock/SCRATCH/511020/C11053-P82/C11053-P82.minimised.mol

>  <scratch_subdir>  (1231) 
/opt/xchem-fragalysis-2/maxwin/BulkDock/SCRATCH/511020/C11053-P82

>  <fragmenstein_runtime>  (1231) 
20.140433311462402

>  <fragmenstein_outcome>  (1231) 
too moved

>  <fragmenstein_mode>  (1231) 
expansion

>  <fragmenstein_error>  (1231) 


$$$$
C11054-P69
     RDKit          3D

 43 46  0  0  0  0  0  0  0  0999 V2000
   -6.2333  -13.5965   17.0650 O   0  0  0  0  0  0  0  0  0  0  0  0
   -7.4256  -13.6996   16.9317 C   0  0  0  0  0  0  0  0  0  0  0  0
   -8.3253  -11.9745   15.7766 C   0  0  0  0  0  0  0  0  0  0  0  0
   -7.8848   -9.9337   14.1699 S   0  0  0  0  0  0  0  0  0  0  0  0
   -6.9701   -8.3637   12.4613 C   0  0  0  0  0  0  0  0  0  0  0  0
   -6.1813   -6.8401   11.8192 N   0  0  0  0  0  0  0  0  0  0  0  0
   -6.8596   -5.2912   10.7649 C   0  0  0  0  0  0  0  0  0  0  0  0
   -8.3126   -4.9355    9.7218 C   0  0  0  0  0  0  0  0  0  0  0  0
   -8.7492   -4.3191    8.4858 C   0  0  0  0  0  0  0  0  0  0  0  0
   -7.8848   -4.3608    7.5324 C   0  0  0  0  0  0  0  0  0  0  0  0
   -6.8738   -5.0454    8.1054 C   0  0  0  0  0  0  0  0  0  0  0  0
   -6.4736   -5.9481    9.6047 C   0  0  0  0  0  0  0  0  0  0  0  0
   -5.7782   -7.9635   10.4876 S   0  0  0  0  0  0  0  0  0  0  0  0
   -8.0519  -15.4868   17.6636 N   0  0  0  0  0  0  0  0  0  0  0  0
   -7.1247  -17.0087   18.3475 C   0  0  0  0  0  0  0  0  0  0  0  0
   -6.4571  -17.9901   19.5949 C   0  0  0  0  0  0  0  0  0  0  0  0
   -6.4612  -17.4145   20.9013 N   0  0  0  0  0  0  0  0  0  0  0  0
   -6.6566  -18.3992   21.9566 C   0  0  0  0  0  0  0  0  0  0  0  0
   -6.3087  -18.3206   23.2391 C   0  0  0  0  0  0  0  0  0  0  0  0
   -6.2790  -19.4630   24.1798 C   0  0  0  0  0  0  0  0  0  0  0  0
   -6.9881  -20.5455   24.0165 C   0  0  0  0  0  0  0  0  0  0  0  0
   -7.8465  -20.2120   23.0852 C   0  0  0  0  0  0  0  0  0  0  0  0
   -7.4008  -19.4508   21.9442 N   0  0  0  0  0  0  0  0  0  0  0  0
   -7.4196  -16.2221   20.9501 C   0  0  0  0  0  0  0  0  0  0  0  0
   -8.5352  -15.4745   19.4107 C   0  0  0  0  0  0  0  0  0  0  0  0
   -9.2471  -12.2251   15.2361 H   0  0  0  0  0  0  0  0  0  0  0  0
   -8.1166  -11.6219   16.7587 H   0  0  0  0  0  0  0  0  0  0  0  0
   -9.2755   -4.9663   10.3525 H   0  0  0  0  0  0  0  0  0  0  0  0
   -9.6825   -3.8407    8.3034 H   0  0  0  0  0  0  0  0  0  0  0  0
   -7.8989   -3.8441    6.5925 H   0  0  0  0  0  0  0  0  0  0  0  0
   -6.0694   -4.2973    7.8093 H   0  0  0  0  0  0  0  0  0  0  0  0
   -5.9948  -16.9516   18.2570 H   0  0  0  0  0  0  0  0  0  0  0  0
   -7.6266  -17.7063   17.6792 H   0  0  0  0  0  0  0  0  0  0  0  0
   -6.8707  -19.0010   19.5327 H   0  0  0  0  0  0  0  0  0  0  0  0
   -5.4000  -18.2150   19.3575 H   0  0  0  0  0  0  0  0  0  0  0  0
   -6.0680  -17.3388   23.5330 H   0  0  0  0  0  0  0  0  0  0  0  0
   -5.8167  -19.5871   25.1368 H   0  0  0  0  0  0  0  0  0  0  0  0
   -6.8881  -21.3792   24.6604 H   0  0  0  0  0  0  0  0  0  0  0  0
   -8.7763  -20.7605   22.9629 H   0  0  0  0  0  0  0  0  0  0  0  0
   -8.1226  -16.8307   21.5409 H   0  0  0  0  0  0  0  0  0  0  0  0
   -7.5939  -15.9025   21.9081 H   0  0  0  0  0  0  0  0  0  0  0  0
   -8.6516  -14.3521   19.5796 H   0  0  0  0  0  0  0  0  0  0  0  0
   -9.5952  -15.6076   19.4461 H   0  0  0  0  0  0  0  0  0  0  0  0
  1  2  2  0
  2  3  1  0
  3  4  1  0
  4  5  1  0
  5  6  2  0
  6  7  1  0
  7  8  2  0
  8  9  1  0
  9 10  2  0
 10 11  1  0
 11 12  2  0
 12 13  1  0
  2 14  1  0
 14 15  1  0
 15 16  1  0
 16 17  1  0
 17 18  1  0
 18 19  2  0
 19 20  1  0
 20 21  2  0
 21 22  1  0
 22 23  2  0
 17 24  1  0
 24 25  1  0
 13  5  1  0
 25 14  1  0
 12  7  1  0
 23 18  1  0
  3 26  1  0
  3 27  1  0
  8 28  1  0
  9 29  1  0
 10 30  1  0
 11 31  1  0
 15 32  1  0
 15 33  1  0
 16 34  1  0
 16 35  1  0
 19 36  1  0
 20 37  1  0
 21 38  1  0
 22 39  1  0
 24 40  1  0
 24 41  1  0
 25 42  1  0
 25 43  1  0
M  END
>  <Energy>  (1232) 
2118.5895612189806

>  <compound_id>  (1232) 
11054

>  <target_id>  (1232) 
1

>  <reference_id>  (1232) 
69

>  <inspiration_ids>  (1232) 
[69, 82]

>  <energy_score>  (1232) 
1963.6085113104268

>  <distance_score>  (1232) 
8.664906703593047

>  <path>  (1232) 
/opt/xchem-fragalysis-2/maxwin/BulkDock/SCRATCH/511020/C11054-P69/C11054-P69.minimised.mol

>  <scratch_subdir>  (1232) 
/opt/xchem-fragalysis-2/maxwin/BulkDock/SCRATCH/511020/C11054-P69

>  <fragmenstein_runtime>  (1232) 
25.288522481918335

>  <fragmenstein_outcome>  (1232) 
too moved

>  <fragmenstein_mode>  (1232) 
expansion

>  <fragmenstein_error>  (1232) 


$$$$
C11054-P82
     RDKit          3D

 43 46  0  0  0  0  0  0  0  0999 V2000
   -7.1473  -14.2370   16.6680 O   0  0  0  0  0  0  0  0  0  0  0  0
   -7.8151  -13.4281   17.3275 C   0  0  0  0  0  0  0  0  0  0  0  0
   -7.9877  -11.6531   16.2669 C   0  0  0  0  0  0  0  0  0  0  0  0
   -8.2466  -10.3714   14.0335 S   0  0  0  0  0  0  0  0  0  0  0  0
   -7.7837   -8.7677   12.2633 C   0  0  0  0  0  0  0  0  0  0  0  0
   -8.1755   -8.7716   10.5095 N   0  0  0  0  0  0  0  0  0  0  0  0
   -7.4764   -7.8049    8.9557 C   0  0  0  0  0  0  0  0  0  0  0  0
   -7.8891   -6.3474    7.6589 C   0  0  0  0  0  0  0  0  0  0  0  0
   -7.7740   -5.0154    7.2754 C   0  0  0  0  0  0  0  0  0  0  0  0
   -7.6519   -4.5626    8.4869 C   0  0  0  0  0  0  0  0  0  0  0  0
   -6.8798   -5.4859    9.4761 C   0  0  0  0  0  0  0  0  0  0  0  0
   -6.5425   -7.1544    9.7525 C   0  0  0  0  0  0  0  0  0  0  0  0
   -5.7740   -7.8272   11.3907 S   0  0  0  0  0  0  0  0  0  0  0  0
   -8.6204  -14.1228   18.9157 N   0  0  0  0  0  0  0  0  0  0  0  0
   -8.7246  -15.8472   19.6091 C   0  0  0  0  0  0  0  0  0  0  0  0
   -8.2126  -17.0988   21.2736 C   0  0  0  0  0  0  0  0  0  0  0  0
   -7.0260  -17.6979   20.9869 N   0  0  0  0  0  0  0  0  0  0  0  0
   -6.9799  -18.7263   22.0765 C   0  0  0  0  0  0  0  0  0  0  0  0
   -6.3833  -18.7940   23.2424 C   0  0  0  0  0  0  0  0  0  0  0  0
   -6.3152  -20.0091   24.1920 C   0  0  0  0  0  0  0  0  0  0  0  0
   -7.0235  -21.0997   23.9955 C   0  0  0  0  0  0  0  0  0  0  0  0
   -8.0611  -20.6637   23.3125 C   0  0  0  0  0  0  0  0  0  0  0  0
   -7.9256  -19.5705   22.4526 N   0  0  0  0  0  0  0  0  0  0  0  0
   -7.1269  -16.0811   20.6790 C   0  0  0  0  0  0  0  0  0  0  0  0
   -8.0622  -14.1407   20.1494 C   0  0  0  0  0  0  0  0  0  0  0  0
   -8.6675  -12.1273   15.5404 H   0  0  0  0  0  0  0  0  0  0  0  0
   -7.1039  -11.0088   16.6789 H   0  0  0  0  0  0  0  0  0  0  0  0
   -9.0620   -6.3223    7.4156 H   0  0  0  0  0  0  0  0  0  0  0  0
   -8.3242   -4.5301    6.4835 H   0  0  0  0  0  0  0  0  0  0  0  0
   -8.0646   -3.5865    8.7270 H   0  0  0  0  0  0  0  0  0  0  0  0
   -5.9389   -5.2239    9.0870 H   0  0  0  0  0  0  0  0  0  0  0  0
   -9.8020  -15.8985   19.4699 H   0  0  0  0  0  0  0  0  0  0  0  0
   -8.2949  -16.2782   18.6535 H   0  0  0  0  0  0  0  0  0  0  0  0
   -8.0305  -16.8487   22.3485 H   0  0  0  0  0  0  0  0  0  0  0  0
   -8.7567  -17.9145   21.4235 H   0  0  0  0  0  0  0  0  0  0  0  0
   -6.0587  -17.8204   23.4570 H   0  0  0  0  0  0  0  0  0  0  0  0
   -5.6929  -20.1519   25.0654 H   0  0  0  0  0  0  0  0  0  0  0  0
   -6.8333  -22.0329   24.4785 H   0  0  0  0  0  0  0  0  0  0  0  0
   -8.9809  -21.2197   23.1499 H   0  0  0  0  0  0  0  0  0  0  0  0
   -7.6666  -15.7058   21.4365 H   0  0  0  0  0  0  0  0  0  0  0  0
   -6.1044  -16.2425   20.5871 H   0  0  0  0  0  0  0  0  0  0  0  0
   -8.8931  -13.6437   20.6345 H   0  0  0  0  0  0  0  0  0  0  0  0
   -7.2773  -13.3745   19.9626 H   0  0  0  0  0  0  0  0  0  0  0  0
  1  2  2  0
  2  3  1  0
  3  4  1  0
  4  5  1  0
  5  6  2  0
  6  7  1  0
  7  8  2  0
  8  9  1  0
  9 10  2  0
 10 11  1  0
 11 12  2  0
 12 13  1  0
  2 14  1  0
 14 15  1  0
 15 16  1  0
 16 17  1  0
 17 18  1  0
 18 19  2  0
 19 20  1  0
 20 21  2  0
 21 22  1  0
 22 23  2  0
 17 24  1  0
 24 25  1  0
 13  5  1  0
 25 14  1  0
 12  7  1  0
 23 18  1  0
  3 26  1  0
  3 27  1  0
  8 28  1  0
  9 29  1  0
 10 30  1  0
 11 31  1  0
 15 32  1  0
 15 33  1  0
 16 34  1  0
 16 35  1  0
 19 36  1  0
 20 37  1  0
 21 38  1  0
 22 39  1  0
 24 40  1  0
 24 41  1  0
 25 42  1  0
 25 43  1  0
M  END
>  <Energy>  (1233) 
2158.181919741472

>  <compound_id>  (1233) 
11054

>  <target_id>  (1233) 
1

>  <reference_id>  (1233) 
82

>  <inspiration_ids>  (1233) 
[69, 82]

>  <energy_score>  (1233) 
2003.2008698329237

>  <distance_score>  (1233) 
8.649491305658884

>  <path>  (1233) 
/opt/xchem-fragalysis-2/maxwin/BulkDock/SCRATCH/511020/C11054-P82/C11054-P82.minimised.mol

>  <scratch_subdir>  (1233) 
/opt/xchem-fragalysis-2/maxwin/BulkDock/SCRATCH/511020/C11054-P82

>  <fragmenstein_runtime>  (1233) 
21.183026790618896

>  <fragmenstein_outcome>  (1233) 
too moved

>  <fragmenstein_mode>  (1233) 
expansion

>  <fragmenstein_error>  (1233) 


$$$$
C6703-P69
     RDKit          3D

 47 50  0  0  0  0  0  0  0  0999 V2000
  -18.3160  -16.6497   15.7814 O   0  0  0  0  0  0  0  0  0  0  0  0
  -18.6438  -15.9986   16.7046 C   0  0  0  0  0  0  0  0  0  0  0  0
  -18.4946  -14.5152   16.9494 N   0  0  0  0  0  0  0  0  0  0  0  0
  -17.9576  -13.3733   16.0149 C   0  0  0  0  0  0  0  0  0  0  0  0
  -16.3982  -12.8856   15.9425 C   0  0  0  0  0  0  0  0  0  0  0  0
  -15.7756  -11.9567   14.8199 C   0  0  0  0  0  0  0  0  0  0  0  0
  -16.4782  -11.0256   14.0477 C   0  0  0  0  0  0  0  0  0  0  0  0
  -15.8424  -10.2462   13.0290 C   0  0  0  0  0  0  0  0  0  0  0  0
  -14.4635  -10.3893   12.7387 C   0  0  0  0  0  0  0  0  0  0  0  0
  -13.7418   -9.7935   11.7017 N   0  0  0  0  0  0  0  0  0  0  0  0
  -12.5190  -10.2810   11.6998 C   0  0  0  0  0  0  0  0  0  0  0  0
  -12.0871  -11.2629   13.0305 S   0  0  0  0  0  0  0  0  0  0  0  0
  -13.7393  -11.2650   13.5477 C   0  0  0  0  0  0  0  0  0  0  0  0
  -14.3711  -12.0181   14.5811 C   0  0  0  0  0  0  0  0  0  0  0  0
  -19.4721  -16.5109   18.0047 N   0  0  0  0  0  0  0  0  0  0  0  0
  -18.5298  -16.9656   19.0727 C   0  0  0  0  0  0  0  0  0  0  0  0
  -18.9374  -17.2736   20.5327 C   0  0  0  0  0  0  0  0  0  0  0  0
  -19.1617  -18.6986   20.5786 N   0  0  0  0  0  0  0  0  0  0  0  0
  -18.8969  -19.4616   21.7123 C   0  0  0  0  0  0  0  0  0  0  0  0
  -19.1752  -19.0581   23.0232 C   0  0  0  0  0  0  0  0  0  0  0  0
  -18.7557  -19.8124   24.1372 C   0  0  0  0  0  0  0  0  0  0  0  0
  -18.0392  -20.9784   23.9319 C   0  0  0  0  0  0  0  0  0  0  0  0
  -17.7432  -21.4355   22.6996 N   0  0  0  0  0  0  0  0  0  0  0  0
  -18.1896  -20.6771   21.6422 C   0  0  0  0  0  0  0  0  0  0  0  0
  -20.2833  -18.8920   19.6608 C   0  0  0  0  0  0  0  0  0  0  0  0
  -20.1446  -17.9390   18.3154 C   0  0  0  0  0  0  0  0  0  0  0  0
  -18.9610  -14.2711   17.8122 H   0  0  0  0  0  0  0  0  0  0  0  0
  -18.5754  -12.4993   16.2476 H   0  0  0  0  0  0  0  0  0  0  0  0
  -18.2229  -13.7106   15.0062 H   0  0  0  0  0  0  0  0  0  0  0  0
  -16.1748  -12.4047   16.9036 H   0  0  0  0  0  0  0  0  0  0  0  0
  -15.8160  -13.8166   15.9180 H   0  0  0  0  0  0  0  0  0  0  0  0
  -17.5486  -10.8962   14.1978 H   0  0  0  0  0  0  0  0  0  0  0  0
  -16.4374   -9.5653   12.4268 H   0  0  0  0  0  0  0  0  0  0  0  0
  -11.8033  -10.0671   10.9184 H   0  0  0  0  0  0  0  0  0  0  0  0
  -13.7629  -12.7033   15.1664 H   0  0  0  0  0  0  0  0  0  0  0  0
  -17.8644  -16.1021   19.1737 H   0  0  0  0  0  0  0  0  0  0  0  0
  -17.9574  -17.8363   18.7330 H   0  0  0  0  0  0  0  0  0  0  0  0
  -18.0929  -17.0220   21.1547 H   0  0  0  0  0  0  0  0  0  0  0  0
  -19.8317  -16.7248   20.8464 H   0  0  0  0  0  0  0  0  0  0  0  0
  -19.7440  -18.1503   23.2005 H   0  0  0  0  0  0  0  0  0  0  0  0
  -18.9865  -19.4877   25.1461 H   0  0  0  0  0  0  0  0  0  0  0  0
  -17.6791  -21.5745   24.7655 H   0  0  0  0  0  0  0  0  0  0  0  0
  -17.8966  -21.0658   20.6684 H   0  0  0  0  0  0  0  0  0  0  0  0
  -20.3590  -19.9360   19.3363 H   0  0  0  0  0  0  0  0  0  0  0  0
  -21.2225  -18.6249   20.1622 H   0  0  0  0  0  0  0  0  0  0  0  0
  -19.6874  -18.5930   17.5532 H   0  0  0  0  0  0  0  0  0  0  0  0
  -21.1704  -17.7984   17.9471 H   0  0  0  0  0  0  0  0  0  0  0  0
  1  2  2  0
  2  3  1  0
  3  4  1  0
  4  5  1  0
  5  6  1  0
  6  7  2  0
  7  8  1  0
  8  9  2  0
  9 10  1  0
 10 11  2  0
 11 12  1  0
 12 13  1  0
 13 14  2  0
  2 15  1  0
 15 16  1  0
 16 17  1  0
 17 18  1  0
 18 19  1  0
 19 20  2  0
 20 21  1  0
 21 22  2  0
 22 23  1  0
 23 24  2  0
 18 25  1  0
 25 26  1  0
 14  6  1  0
 26 15  1  0
 13  9  1  0
 24 19  1  0
  3 27  1  0
  4 28  1  0
  4 29  1  0
  5 30  1  0
  5 31  1  0
  7 32  1  0
  8 33  1  0
 11 34  1  0
 14 35  1  0
 16 36  1  0
 16 37  1  0
 17 38  1  0
 17 39  1  0
 20 40  1  0
 21 41  1  0
 22 42  1  0
 24 43  1  0
 25 44  1  0
 25 45  1  0
 26 46  1  0
 26 47  1  0
M  END
>  <Energy>  (1234) 
191.53797446449121

>  <compound_id>  (1234) 
6703

>  <target_id>  (1234) 
1

>  <reference_id>  (1234) 
69

>  <inspiration_ids>  (1234) 
[69, 82]

>  <energy_score>  (1234) 
70.38500520448667

>  <distance_score>  (1234) 
14.111373856917567

>  <path>  (1234) 
/opt/xchem-fragalysis-2/maxwin/BulkDock/SCRATCH/511020/C6703-P69/C6703-P69.minimised.mol

>  <scratch_subdir>  (1234) 
/opt/xchem-fragalysis-2/maxwin/BulkDock/SCRATCH/511020/C6703-P69

>  <fragmenstein_runtime>  (1234) 
31.794355154037476

>  <fragmenstein_outcome>  (1234) 
too moved

>  <fragmenstein_mode>  (1234) 
expansion

>  <fragmenstein_error>  (1234) 


$$$$
C6703-P82
     RDKit          3D

 47 50  0  0  0  0  0  0  0  0999 V2000
  -14.9702  -16.2366   21.5510 O   0  0  0  0  0  0  0  0  0  0  0  0
  -13.8624  -16.2536   21.3943 C   0  0  0  0  0  0  0  0  0  0  0  0
  -13.2404  -15.7417   19.8673 N   0  0  0  0  0  0  0  0  0  0  0  0
  -14.1836  -14.9440   18.2767 C   0  0  0  0  0  0  0  0  0  0  0  0
  -15.0558  -13.3445   17.6882 C   0  0  0  0  0  0  0  0  0  0  0  0
  -14.7752  -12.3427   16.4014 C   0  0  0  0  0  0  0  0  0  0  0  0
  -14.7507  -12.8115   15.0774 C   0  0  0  0  0  0  0  0  0  0  0  0
  -14.3478  -11.9873   13.9864 C   0  0  0  0  0  0  0  0  0  0  0  0
  -13.9504  -10.6451   14.1824 C   0  0  0  0  0  0  0  0  0  0  0  0
  -13.5651   -9.7341   13.1961 N   0  0  0  0  0  0  0  0  0  0  0  0
  -13.3300   -8.5729   13.7599 C   0  0  0  0  0  0  0  0  0  0  0  0
  -13.4104   -8.5170   15.4682 S   0  0  0  0  0  0  0  0  0  0  0  0
  -13.9714  -10.1579   15.4929 C   0  0  0  0  0  0  0  0  0  0  0  0
  -14.3976  -10.9715   16.5930 C   0  0  0  0  0  0  0  0  0  0  0  0
  -12.9768  -16.8165   22.6538 N   0  0  0  0  0  0  0  0  0  0  0  0
  -12.3880  -16.1343   23.7684 C   0  0  0  0  0  0  0  0  0  0  0  0
  -11.4168  -17.6135   24.7134 C   0  0  0  0  0  0  0  0  0  0  0  0
  -12.0193  -19.6320   24.4655 N   0  0  0  0  0  0  0  0  0  0  0  0
  -11.9979  -21.0317   24.8287 C   0  0  0  0  0  0  0  0  0  0  0  0
  -11.8668  -21.7256   26.1784 C   0  0  0  0  0  0  0  0  0  0  0  0
  -12.1286  -23.0818   26.4363 C   0  0  0  0  0  0  0  0  0  0  0  0
  -12.5816  -23.7891   25.3717 C   0  0  0  0  0  0  0  0  0  0  0  0
  -12.6919  -23.2728   24.1225 N   0  0  0  0  0  0  0  0  0  0  0  0
  -12.3515  -21.9693   23.8695 C   0  0  0  0  0  0  0  0  0  0  0  0
  -13.9084  -19.1869   24.5204 C   0  0  0  0  0  0  0  0  0  0  0  0
  -13.4446  -17.5138   24.1568 C   0  0  0  0  0  0  0  0  0  0  0  0
  -12.2713  -15.8921   19.8606 H   0  0  0  0  0  0  0  0  0  0  0  0
  -15.1625  -15.3986   18.6372 H   0  0  0  0  0  0  0  0  0  0  0  0
  -14.5462  -15.3610   17.3537 H   0  0  0  0  0  0  0  0  0  0  0  0
  -16.0017  -13.8035   17.3440 H   0  0  0  0  0  0  0  0  0  0  0  0
  -15.4358  -12.7061   18.4849 H   0  0  0  0  0  0  0  0  0  0  0  0
  -15.0134  -13.8466   14.8727 H   0  0  0  0  0  0  0  0  0  0  0  0
  -14.3384  -12.3951   12.9799 H   0  0  0  0  0  0  0  0  0  0  0  0
  -13.1043   -7.6858   13.1883 H   0  0  0  0  0  0  0  0  0  0  0  0
  -14.3676  -10.5557   17.5972 H   0  0  0  0  0  0  0  0  0  0  0  0
  -12.9244  -15.5037   24.4799 H   0  0  0  0  0  0  0  0  0  0  0  0
  -11.6944  -15.5568   23.1974 H   0  0  0  0  0  0  0  0  0  0  0  0
  -10.5151  -17.4816   24.0860 H   0  0  0  0  0  0  0  0  0  0  0  0
  -10.5508  -17.3240   25.4039 H   0  0  0  0  0  0  0  0  0  0  0  0
  -11.5896  -21.2319   27.0875 H   0  0  0  0  0  0  0  0  0  0  0  0
  -12.0360  -23.5031   27.4274 H   0  0  0  0  0  0  0  0  0  0  0  0
  -12.8764  -24.8268   25.4749 H   0  0  0  0  0  0  0  0  0  0  0  0
  -12.3962  -21.6926   22.8240 H   0  0  0  0  0  0  0  0  0  0  0  0
  -14.6764  -19.9573   24.2486 H   0  0  0  0  0  0  0  0  0  0  0  0
  -14.4225  -18.9303   25.4652 H   0  0  0  0  0  0  0  0  0  0  0  0
  -13.6216  -18.1854   23.4045 H   0  0  0  0  0  0  0  0  0  0  0  0
  -14.2615  -16.8806   24.5820 H   0  0  0  0  0  0  0  0  0  0  0  0
  1  2  2  0
  2  3  1  0
  3  4  1  0
  4  5  1  0
  5  6  1  0
  6  7  2  0
  7  8  1  0
  8  9  2  0
  9 10  1  0
 10 11  2  0
 11 12  1  0
 12 13  1  0
 13 14  2  0
  2 15  1  0
 15 16  1  0
 16 17  1  0
 17 18  1  0
 18 19  1  0
 19 20  2  0
 20 21  1  0
 21 22  2  0
 22 23  1  0
 23 24  2  0
 18 25  1  0
 25 26  1  0
 14  6  1  0
 26 15  1  0
 13  9  1  0
 24 19  1  0
  3 27  1  0
  4 28  1  0
  4 29  1  0
  5 30  1  0
  5 31  1  0
  7 32  1  0
  8 33  1  0
 11 34  1  0
 14 35  1  0
 16 36  1  0
 16 37  1  0
 17 38  1  0
 17 39  1  0
 20 40  1  0
 21 41  1  0
 22 42  1  0
 24 43  1  0
 25 44  1  0
 25 45  1  0
 26 46  1  0
 26 47  1  0
M  END
>  <Energy>  (1235) 
908.69064853266195

>  <compound_id>  (1235) 
6703

>  <target_id>  (1235) 
1

>  <reference_id>  (1235) 
82

>  <inspiration_ids>  (1235) 
[69, 82]

>  <energy_score>  (1235) 
787.5376792726495

>  <distance_score>  (1235) 
12.581341745769675

>  <path>  (1235) 
/opt/xchem-fragalysis-2/maxwin/BulkDock/SCRATCH/511020/C6703-P82/C6703-P82.minimised.mol

>  <scratch_subdir>  (1235) 
/opt/xchem-fragalysis-2/maxwin/BulkDock/SCRATCH/511020/C6703-P82

>  <fragmenstein_runtime>  (1235) 
36.19928026199341

>  <fragmenstein_outcome>  (1235) 
too moved

>  <fragmenstein_mode>  (1235) 
expansion

>  <fragmenstein_error>  (1235) 


$$$$
C11055-P69
     RDKit          3D

 48 51  0  0  0  0  0  0  0  0999 V2000
   -6.9079  -13.9600   20.5026 O   0  0  0  0  0  0  0  0  0  0  0  0
   -8.1071  -14.4046   20.6380 C   0  0  0  0  0  0  0  0  0  0  0  0
   -9.2222  -13.3057   19.3753 C   0  0  0  0  0  0  0  0  0  0  0  0
   -8.3728  -12.3982   17.6102 C   0  0  0  0  0  0  0  0  0  0  0  0
   -8.5408  -11.6423   15.5819 C   0  0  0  0  0  0  0  0  0  0  0  0
   -7.6466  -10.2322   14.3636 C   0  0  0  0  0  0  0  0  0  0  0  0
   -7.7798   -9.0086   13.6561 N   0  0  0  0  0  0  0  0  0  0  0  0
   -6.3798   -8.2664   12.8084 C   0  0  0  0  0  0  0  0  0  0  0  0
   -5.9975   -6.9443   12.3719 C   0  0  0  0  0  0  0  0  0  0  0  0
   -4.8019   -6.5980   11.7077 C   0  0  0  0  0  0  0  0  0  0  0  0
   -3.9342   -7.5260   11.2613 C   0  0  0  0  0  0  0  0  0  0  0  0
   -4.1655   -8.7819   11.7230 C   0  0  0  0  0  0  0  0  0  0  0  0
   -5.2329   -9.0629   12.6467 C   0  0  0  0  0  0  0  0  0  0  0  0
   -5.4480  -10.5480   13.7763 S   0  0  0  0  0  0  0  0  0  0  0  0
   -8.3630  -16.1348   21.8316 N   0  0  0  0  0  0  0  0  0  0  0  0
   -7.1947  -17.2087   22.6252 C   0  0  0  0  0  0  0  0  0  0  0  0
   -7.8929  -19.0316   23.0930 C   0  0  0  0  0  0  0  0  0  0  0  0
   -9.7915  -19.4911   23.3977 N   0  0  0  0  0  0  0  0  0  0  0  0
  -10.4933  -20.9185   23.4362 C   0  0  0  0  0  0  0  0  0  0  0  0
  -11.8251  -20.9921   23.9196 C   0  0  0  0  0  0  0  0  0  0  0  0
  -12.5060  -22.2179   23.9538 C   0  0  0  0  0  0  0  0  0  0  0  0
  -11.8661  -23.3727   23.5540 C   0  0  0  0  0  0  0  0  0  0  0  0
  -10.5806  -23.2410   23.0797 C   0  0  0  0  0  0  0  0  0  0  0  0
   -9.9071  -22.0613   22.9816 N   0  0  0  0  0  0  0  0  0  0  0  0
  -10.5660  -19.2695   22.0287 C   0  0  0  0  0  0  0  0  0  0  0  0
   -8.4458  -18.0271   21.5228 C   0  0  0  0  0  0  0  0  0  0  0  0
  -10.2038  -13.6222   19.1975 H   0  0  0  0  0  0  0  0  0  0  0  0
   -9.0760  -12.3249   19.6609 H   0  0  0  0  0  0  0  0  0  0  0  0
   -7.6997  -13.2252   17.3838 H   0  0  0  0  0  0  0  0  0  0  0  0
   -7.5823  -11.8035   18.0979 H   0  0  0  0  0  0  0  0  0  0  0  0
   -8.8043  -12.4994   14.9027 H   0  0  0  0  0  0  0  0  0  0  0  0
   -9.5506  -11.3371   15.1772 H   0  0  0  0  0  0  0  0  0  0  0  0
   -6.6098   -6.0927   12.6670 H   0  0  0  0  0  0  0  0  0  0  0  0
   -4.5227   -5.5842   11.5834 H   0  0  0  0  0  0  0  0  0  0  0  0
   -3.0565   -7.2844   10.6743 H   0  0  0  0  0  0  0  0  0  0  0  0
   -3.4663   -9.5427   11.4157 H   0  0  0  0  0  0  0  0  0  0  0  0
   -6.3617  -17.4316   21.9241 H   0  0  0  0  0  0  0  0  0  0  0  0
   -6.8039  -16.8484   23.5531 H   0  0  0  0  0  0  0  0  0  0  0  0
   -7.5097  -19.7676   22.3988 H   0  0  0  0  0  0  0  0  0  0  0  0
   -7.2330  -19.1434   23.8766 H   0  0  0  0  0  0  0  0  0  0  0  0
  -12.3121  -20.1243   24.3442 H   0  0  0  0  0  0  0  0  0  0  0  0
  -13.5231  -22.2662   24.3286 H   0  0  0  0  0  0  0  0  0  0  0  0
  -12.3592  -24.3346   23.6039 H   0  0  0  0  0  0  0  0  0  0  0  0
  -10.0224  -24.1106   22.7491 H   0  0  0  0  0  0  0  0  0  0  0  0
  -10.3524  -20.4642   21.5275 H   0  0  0  0  0  0  0  0  0  0  0  0
  -11.3698  -19.8426   21.3846 H   0  0  0  0  0  0  0  0  0  0  0  0
   -7.5870  -18.5237   20.8937 H   0  0  0  0  0  0  0  0  0  0  0  0
   -9.0048  -17.2606   21.2035 H   0  0  0  0  0  0  0  0  0  0  0  0
  1  2  2  0
  2  3  1  0
  3  4  1  0
  4  5  1  0
  5  6  1  0
  6  7  2  0
  7  8  1  0
  8  9  2  0
  9 10  1  0
 10 11  2  0
 11 12  1  0
 12 13  2  0
 13 14  1  0
  2 15  1  0
 15 16  1  0
 16 17  1  0
 17 18  1  0
 18 19  1  0
 19 20  2  0
 20 21  1  0
 21 22  2  0
 22 23  1  0
 23 24  2  0
 18 25  1  0
 25 26  1  0
 14  6  1  0
 26 15  1  0
 13  8  1  0
 24 19  1  0
  3 27  1  0
  3 28  1  0
  4 29  1  0
  4 30  1  0
  5 31  1  0
  5 32  1  0
  9 33  1  0
 10 34  1  0
 11 35  1  0
 12 36  1  0
 16 37  1  0
 16 38  1  0
 17 39  1  0
 17 40  1  0
 20 41  1  0
 21 42  1  0
 22 43  1  0
 23 44  1  0
 25 45  1  0
 25 46  1  0
 26 47  1  0
 26 48  1  0
M  END
>  <Energy>  (1236) 
1875.7093056786434

>  <compound_id>  (1236) 
11055

>  <target_id>  (1236) 
1

>  <reference_id>  (1236) 
69

>  <inspiration_ids>  (1236) 
[69, 82]

>  <energy_score>  (1236) 
1750.582460943789

>  <distance_score>  (1236) 
9.161068768648304

>  <path>  (1236) 
/opt/xchem-fragalysis-2/maxwin/BulkDock/SCRATCH/511020/C11055-P69/C11055-P69.minimised.mol

>  <scratch_subdir>  (1236) 
/opt/xchem-fragalysis-2/maxwin/BulkDock/SCRATCH/511020/C11055-P69

>  <fragmenstein_runtime>  (1236) 
26.02298331260681

>  <fragmenstein_outcome>  (1236) 
too moved

>  <fragmenstein_mode>  (1236) 
expansion

>  <fragmenstein_error>  (1236) 


$$$$
C11055-P82
     RDKit          3D

 48 51  0  0  0  0  0  0  0  0999 V2000
   -6.8191  -12.7158   19.3965 O   0  0  0  0  0  0  0  0  0  0  0  0
   -7.6476  -12.9768   18.5756 C   0  0  0  0  0  0  0  0  0  0  0  0
   -7.6102  -11.5260   17.0979 C   0  0  0  0  0  0  0  0  0  0  0  0
   -6.9315   -9.9693   15.7377 C   0  0  0  0  0  0  0  0  0  0  0  0
   -7.3721   -8.8505   13.9269 C   0  0  0  0  0  0  0  0  0  0  0  0
   -6.6067   -7.3559   12.6862 C   0  0  0  0  0  0  0  0  0  0  0  0
   -6.9088   -5.7450   12.3448 N   0  0  0  0  0  0  0  0  0  0  0  0
   -7.2161   -5.0675   10.5523 C   0  0  0  0  0  0  0  0  0  0  0  0
   -8.6557   -4.5677    9.4940 C   0  0  0  0  0  0  0  0  0  0  0  0
   -8.8480   -4.0334    8.2150 C   0  0  0  0  0  0  0  0  0  0  0  0
   -7.7861   -4.1619    7.4661 C   0  0  0  0  0  0  0  0  0  0  0  0
   -6.7995   -4.8606    8.1445 C   0  0  0  0  0  0  0  0  0  0  0  0
   -6.5459   -5.7820    9.6133 C   0  0  0  0  0  0  0  0  0  0  0  0
   -5.3719   -7.1761   10.9307 S   0  0  0  0  0  0  0  0  0  0  0  0
   -8.5029  -14.6837   18.9247 N   0  0  0  0  0  0  0  0  0  0  0  0
   -8.3529  -15.9073   20.3811 C   0  0  0  0  0  0  0  0  0  0  0  0
   -7.4850  -17.2940   21.4430 C   0  0  0  0  0  0  0  0  0  0  0  0
   -7.3763  -18.6902   20.9318 N   0  0  0  0  0  0  0  0  0  0  0  0
   -8.0341  -19.7669   22.2724 C   0  0  0  0  0  0  0  0  0  0  0  0
   -9.1335  -21.2141   21.8112 C   0  0  0  0  0  0  0  0  0  0  0  0
  -10.2553  -22.0652   22.1275 C   0  0  0  0  0  0  0  0  0  0  0  0
  -11.0438  -21.5227   23.0374 C   0  0  0  0  0  0  0  0  0  0  0  0
  -10.5047  -20.3141   23.4658 C   0  0  0  0  0  0  0  0  0  0  0  0
   -9.1028  -19.3030   23.2033 N   0  0  0  0  0  0  0  0  0  0  0  0
   -6.9573  -18.0331   19.1565 C   0  0  0  0  0  0  0  0  0  0  0  0
   -7.9227  -16.4363   18.2369 C   0  0  0  0  0  0  0  0  0  0  0  0
   -8.1848  -12.1632   16.4197 H   0  0  0  0  0  0  0  0  0  0  0  0
   -6.6167  -11.3294   17.5441 H   0  0  0  0  0  0  0  0  0  0  0  0
   -6.9425   -9.1639   16.5187 H   0  0  0  0  0  0  0  0  0  0  0  0
   -5.8985  -10.2867   15.7378 H   0  0  0  0  0  0  0  0  0  0  0  0
   -8.2296   -9.3235   13.4293 H   0  0  0  0  0  0  0  0  0  0  0  0
   -7.7821   -7.9663   14.4017 H   0  0  0  0  0  0  0  0  0  0  0  0
   -9.5380   -4.5177   10.1669 H   0  0  0  0  0  0  0  0  0  0  0  0
   -9.7126   -3.4812    7.8868 H   0  0  0  0  0  0  0  0  0  0  0  0
   -7.6447   -3.6664    6.5167 H   0  0  0  0  0  0  0  0  0  0  0  0
   -5.9325   -4.2544    7.7617 H   0  0  0  0  0  0  0  0  0  0  0  0
   -9.3106  -16.2398   20.0382 H   0  0  0  0  0  0  0  0  0  0  0  0
   -7.4096  -16.3639   20.0934 H   0  0  0  0  0  0  0  0  0  0  0  0
   -6.4102  -17.1873   21.2658 H   0  0  0  0  0  0  0  0  0  0  0  0
   -7.6934  -17.2397   22.4789 H   0  0  0  0  0  0  0  0  0  0  0  0
   -9.1109  -21.2921   20.6850 H   0  0  0  0  0  0  0  0  0  0  0  0
  -10.5546  -22.8991   21.5104 H   0  0  0  0  0  0  0  0  0  0  0  0
  -11.9840  -21.9136   23.3920 H   0  0  0  0  0  0  0  0  0  0  0  0
  -11.1809  -19.9808   24.2413 H   0  0  0  0  0  0  0  0  0  0  0  0
   -5.9067  -17.7425   19.2713 H   0  0  0  0  0  0  0  0  0  0  0  0
   -6.9902  -18.9248   18.5385 H   0  0  0  0  0  0  0  0  0  0  0  0
   -7.4489  -16.2055   17.2495 H   0  0  0  0  0  0  0  0  0  0  0  0
   -8.7504  -16.7885   17.6425 H   0  0  0  0  0  0  0  0  0  0  0  0
  1  2  2  0
  2  3  1  0
  3  4  1  0
  4  5  1  0
  5  6  1  0
  6  7  2  0
  7  8  1  0
  8  9  2  0
  9 10  1  0
 10 11  2  0
 11 12  1  0
 12 13  2  0
 13 14  1  0
  2 15  1  0
 15 16  1  0
 16 17  1  0
 17 18  1  0
 18 19  1  0
 19 20  2  0
 20 21  1  0
 21 22  2  0
 22 23  1  0
 23 24  2  0
 18 25  1  0
 25 26  1  0
 14  6  1  0
 26 15  1  0
 13  8  1  0
 24 19  1  0
  3 27  1  0
  3 28  1  0
  4 29  1  0
  4 30  1  0
  5 31  1  0
  5 32  1  0
  9 33  1  0
 10 34  1  0
 11 35  1  0
 12 36  1  0
 16 37  1  0
 16 38  1  0
 17 39  1  0
 17 40  1  0
 20 41  1  0
 21 42  1  0
 22 43  1  0
 23 44  1  0
 25 45  1  0
 25 46  1  0
 26 47  1  0
 26 48  1  0
M  END
>  <Energy>  (1237) 
1946.4217116177242

>  <compound_id>  (1237) 
11055

>  <target_id>  (1237) 
1

>  <reference_id>  (1237) 
82

>  <inspiration_ids>  (1237) 
[69, 82]

>  <energy_score>  (1237) 
1821.2948668828526

>  <distance_score>  (1237) 
8.060564498389885

>  <path>  (1237) 
/opt/xchem-fragalysis-2/maxwin/BulkDock/SCRATCH/511020/C11055-P82/C11055-P82.minimised.mol

>  <scratch_subdir>  (1237) 
/opt/xchem-fragalysis-2/maxwin/BulkDock/SCRATCH/511020/C11055-P82

>  <fragmenstein_runtime>  (1237) 
28.07405734062195

>  <fragmenstein_outcome>  (1237) 
too moved

>  <fragmenstein_mode>  (1237) 
expansion

>  <fragmenstein_error>  (1237) 


$$$$
C11056-P69
     RDKit          3D

 47 50  0  0  0  0  0  0  0  0999 V2000
  -10.1265  -12.4000   18.6687 O   0  0  0  0  0  0  0  0  0  0  0  0
   -9.0477  -12.7970   18.3546 C   0  0  0  0  0  0  0  0  0  0  0  0
   -8.1453  -12.2140   17.2370 C   0  0  0  0  0  0  0  0  0  0  0  0
   -8.9149  -11.8967   15.3867 C   0  0  0  0  0  0  0  0  0  0  0  0
   -8.8863  -12.7135   14.0961 N   0  0  0  0  0  0  0  0  0  0  0  0
   -9.1778  -12.1713   12.8486 C   0  0  0  0  0  0  0  0  0  0  0  0
   -9.6588  -12.9396   11.8954 N   0  0  0  0  0  0  0  0  0  0  0  0
   -9.8482  -12.3018   10.6796 C   0  0  0  0  0  0  0  0  0  0  0  0
  -10.3916  -12.8445    9.4948 C   0  0  0  0  0  0  0  0  0  0  0  0
  -10.5572  -12.0443    8.3622 C   0  0  0  0  0  0  0  0  0  0  0  0
  -10.0933  -10.7438    8.3670 C   0  0  0  0  0  0  0  0  0  0  0  0
   -9.4524  -10.2258    9.4919 C   0  0  0  0  0  0  0  0  0  0  0  0
   -9.4878  -10.9675   10.6772 C   0  0  0  0  0  0  0  0  0  0  0  0
   -9.2967  -10.4850   12.4203 S   0  0  0  0  0  0  0  0  0  0  0  0
   -8.1745  -14.1869   18.8754 N   0  0  0  0  0  0  0  0  0  0  0  0
   -8.5774  -15.3101   20.0708 C   0  0  0  0  0  0  0  0  0  0  0  0
   -7.3259  -16.4051   21.1468 C   0  0  0  0  0  0  0  0  0  0  0  0
   -6.6548  -17.6620   20.6184 N   0  0  0  0  0  0  0  0  0  0  0  0
   -7.1472  -19.0339   21.3042 C   0  0  0  0  0  0  0  0  0  0  0  0
   -7.6914  -19.6136   20.2354 C   0  0  0  0  0  0  0  0  0  0  0  0
   -9.0516  -20.6697   20.0940 C   0  0  0  0  0  0  0  0  0  0  0  0
   -9.7497  -21.3010   21.1727 C   0  0  0  0  0  0  0  0  0  0  0  0
   -9.0941  -20.8831   22.3721 C   0  0  0  0  0  0  0  0  0  0  0  0
   -7.7586  -19.7240   22.5174 N   0  0  0  0  0  0  0  0  0  0  0  0
   -6.8469  -17.3129   18.9245 C   0  0  0  0  0  0  0  0  0  0  0  0
   -8.1167  -15.9445   18.1823 C   0  0  0  0  0  0  0  0  0  0  0  0
   -7.6162  -13.1618   17.0888 H   0  0  0  0  0  0  0  0  0  0  0  0
   -7.4337  -11.5193   17.6711 H   0  0  0  0  0  0  0  0  0  0  0  0
  -10.0185  -11.9282   15.4735 H   0  0  0  0  0  0  0  0  0  0  0  0
   -8.5849  -10.9076   15.0462 H   0  0  0  0  0  0  0  0  0  0  0  0
   -9.2926  -13.6358   14.2060 H   0  0  0  0  0  0  0  0  0  0  0  0
  -10.7247  -13.8775    9.4876 H   0  0  0  0  0  0  0  0  0  0  0  0
  -11.0279  -12.4548    7.4726 H   0  0  0  0  0  0  0  0  0  0  0  0
  -10.2278  -10.1359    7.4769 H   0  0  0  0  0  0  0  0  0  0  0  0
   -8.9862   -9.2646    9.4672 H   0  0  0  0  0  0  0  0  0  0  0  0
   -9.5221  -15.6593   19.6856 H   0  0  0  0  0  0  0  0  0  0  0  0
   -8.4872  -14.3231   20.5481 H   0  0  0  0  0  0  0  0  0  0  0  0
   -7.6453  -16.6538   22.1485 H   0  0  0  0  0  0  0  0  0  0  0  0
   -6.4070  -16.0085   20.8972 H   0  0  0  0  0  0  0  0  0  0  0  0
   -7.1313  -19.5318   19.3022 H   0  0  0  0  0  0  0  0  0  0  0  0
   -9.1098  -20.8612   19.0303 H   0  0  0  0  0  0  0  0  0  0  0  0
  -10.5780  -21.9785   21.0996 H   0  0  0  0  0  0  0  0  0  0  0  0
   -9.5535  -21.3234   23.2480 H   0  0  0  0  0  0  0  0  0  0  0  0
   -7.0231  -18.1782   18.3113 H   0  0  0  0  0  0  0  0  0  0  0  0
   -5.7668  -17.1581   18.7398 H   0  0  0  0  0  0  0  0  0  0  0  0
   -9.0142  -16.2780   17.7506 H   0  0  0  0  0  0  0  0  0  0  0  0
   -7.5402  -15.8360   17.2432 H   0  0  0  0  0  0  0  0  0  0  0  0
  1  2  2  0
  2  3  1  0
  3  4  1  0
  4  5  1  0
  5  6  1  0
  6  7  2  0
  7  8  1  0
  8  9  2  0
  9 10  1  0
 10 11  2  0
 11 12  1  0
 12 13  2  0
 13 14  1  0
  2 15  1  0
 15 16  1  0
 16 17  1  0
 17 18  1  0
 18 19  1  0
 19 20  2  0
 20 21  1  0
 21 22  2  0
 22 23  1  0
 23 24  2  0
 18 25  1  0
 25 26  1  0
 14  6  1  0
 26 15  1  0
 13  8  1  0
 24 19  1  0
  3 27  1  0
  3 28  1  0
  4 29  1  0
  4 30  1  0
  5 31  1  0
  9 32  1  0
 10 33  1  0
 11 34  1  0
 12 35  1  0
 16 36  1  0
 16 37  1  0
 17 38  1  0
 17 39  1  0
 20 40  1  0
 21 41  1  0
 22 42  1  0
 23 43  1  0
 25 44  1  0
 25 45  1  0
 26 46  1  0
 26 47  1  0
M  END
>  <Energy>  (1238) 
659.02401655499068

>  <compound_id>  (1238) 
11056

>  <target_id>  (1238) 
1

>  <reference_id>  (1238) 
69

>  <inspiration_ids>  (1238) 
[69, 82]

>  <energy_score>  (1238) 
576.3263743062906

>  <distance_score>  (1238) 
11.74510932841069

>  <path>  (1238) 
/opt/xchem-fragalysis-2/maxwin/BulkDock/SCRATCH/511020/C11056-P69/C11056-P69.minimised.mol

>  <scratch_subdir>  (1238) 
/opt/xchem-fragalysis-2/maxwin/BulkDock/SCRATCH/511020/C11056-P69

>  <fragmenstein_runtime>  (1238) 
37.565650939941406

>  <fragmenstein_outcome>  (1238) 
too moved

>  <fragmenstein_mode>  (1238) 
expansion

>  <fragmenstein_error>  (1238) 


$$$$
C11056-P82
     RDKit          3D

 47 50  0  0  0  0  0  0  0  0999 V2000
   -8.4303  -13.5252   20.5124 O   0  0  0  0  0  0  0  0  0  0  0  0
   -8.3376  -14.1660   19.5679 C   0  0  0  0  0  0  0  0  0  0  0  0
   -8.1073  -12.9826   18.0023 C   0  0  0  0  0  0  0  0  0  0  0  0
   -6.9711  -11.3927   17.4648 C   0  0  0  0  0  0  0  0  0  0  0  0
   -6.1231  -10.3860   15.9432 N   0  0  0  0  0  0  0  0  0  0  0  0
   -5.5587  -10.3827   14.1224 C   0  0  0  0  0  0  0  0  0  0  0  0
   -5.2280  -11.2126   12.9964 N   0  0  0  0  0  0  0  0  0  0  0  0
   -4.2838  -10.9929   11.5356 C   0  0  0  0  0  0  0  0  0  0  0  0
   -3.9186  -11.9151   10.5282 C   0  0  0  0  0  0  0  0  0  0  0  0
   -3.0758  -11.4401    9.5257 C   0  0  0  0  0  0  0  0  0  0  0  0
   -2.6554  -10.1104    9.5246 C   0  0  0  0  0  0  0  0  0  0  0  0
   -3.1831   -9.1549   10.4071 C   0  0  0  0  0  0  0  0  0  0  0  0
   -4.0327   -9.6323   11.3988 C   0  0  0  0  0  0  0  0  0  0  0  0
   -4.7160   -8.8348   12.7613 S   0  0  0  0  0  0  0  0  0  0  0  0
   -8.2156  -16.0686   19.8918 N   0  0  0  0  0  0  0  0  0  0  0  0
   -8.0855  -17.0440   21.4861 C   0  0  0  0  0  0  0  0  0  0  0  0
   -7.4808  -18.3948   22.4200 C   0  0  0  0  0  0  0  0  0  0  0  0
   -7.5571  -19.7607   22.0482 N   0  0  0  0  0  0  0  0  0  0  0  0
   -9.0300  -20.9271   22.3530 C   0  0  0  0  0  0  0  0  0  0  0  0
   -8.9140  -22.2974   22.8322 C   0  0  0  0  0  0  0  0  0  0  0  0
   -9.9512  -23.2650   22.9742 C   0  0  0  0  0  0  0  0  0  0  0  0
  -11.2352  -22.8247   23.0325 C   0  0  0  0  0  0  0  0  0  0  0  0
  -11.3359  -21.4633   23.0206 C   0  0  0  0  0  0  0  0  0  0  0  0
  -10.3271  -20.5738   22.7168 N   0  0  0  0  0  0  0  0  0  0  0  0
   -6.9794  -19.1256   20.4908 C   0  0  0  0  0  0  0  0  0  0  0  0
   -6.6925  -17.2070   20.1553 C   0  0  0  0  0  0  0  0  0  0  0  0
   -9.1039  -12.5454   18.0158 H   0  0  0  0  0  0  0  0  0  0  0  0
   -7.7135  -13.6237   17.2337 H   0  0  0  0  0  0  0  0  0  0  0  0
   -7.4101  -10.6861   18.1011 H   0  0  0  0  0  0  0  0  0  0  0  0
   -7.7401  -11.5564   16.7273 H   0  0  0  0  0  0  0  0  0  0  0  0
   -6.7082   -9.5666   16.0824 H   0  0  0  0  0  0  0  0  0  0  0  0
   -4.2255  -12.9510   10.5873 H   0  0  0  0  0  0  0  0  0  0  0  0
   -2.6940  -12.1276    8.7749 H   0  0  0  0  0  0  0  0  0  0  0  0
   -1.8946   -9.8072    8.8093 H   0  0  0  0  0  0  0  0  0  0  0  0
   -2.8623   -8.1193   10.3916 H   0  0  0  0  0  0  0  0  0  0  0  0
   -7.8672  -16.4483   22.2729 H   0  0  0  0  0  0  0  0  0  0  0  0
   -8.7589  -17.7657   21.3467 H   0  0  0  0  0  0  0  0  0  0  0  0
   -8.2769  -18.7029   23.0095 H   0  0  0  0  0  0  0  0  0  0  0  0
   -6.5404  -18.1771   22.9197 H   0  0  0  0  0  0  0  0  0  0  0  0
   -7.9666  -22.6479   23.2448 H   0  0  0  0  0  0  0  0  0  0  0  0
   -9.7031  -24.2937   23.2120 H   0  0  0  0  0  0  0  0  0  0  0  0
  -12.0694  -23.4643   23.2789 H   0  0  0  0  0  0  0  0  0  0  0  0
  -12.2401  -21.0018   23.3770 H   0  0  0  0  0  0  0  0  0  0  0  0
   -5.9647  -19.5298   20.4135 H   0  0  0  0  0  0  0  0  0  0  0  0
   -7.5583  -19.5495   19.7015 H   0  0  0  0  0  0  0  0  0  0  0  0
   -5.9272  -16.9371   20.8464 H   0  0  0  0  0  0  0  0  0  0  0  0
   -6.2839  -17.3991   19.1615 H   0  0  0  0  0  0  0  0  0  0  0  0
  1  2  2  0
  2  3  1  0
  3  4  1  0
  4  5  1  0
  5  6  1  0
  6  7  2  0
  7  8  1  0
  8  9  2  0
  9 10  1  0
 10 11  2  0
 11 12  1  0
 12 13  2  0
 13 14  1  0
  2 15  1  0
 15 16  1  0
 16 17  1  0
 17 18  1  0
 18 19  1  0
 19 20  2  0
 20 21  1  0
 21 22  2  0
 22 23  1  0
 23 24  2  0
 18 25  1  0
 25 26  1  0
 14  6  1  0
 26 15  1  0
 13  8  1  0
 24 19  1  0
  3 27  1  0
  3 28  1  0
  4 29  1  0
  4 30  1  0
  5 31  1  0
  9 32  1  0
 10 33  1  0
 11 34  1  0
 12 35  1  0
 16 36  1  0
 16 37  1  0
 17 38  1  0
 17 39  1  0
 20 40  1  0
 21 41  1  0
 22 42  1  0
 23 43  1  0
 25 44  1  0
 25 45  1  0
 26 46  1  0
 26 47  1  0
M  END
>  <Energy>  (1239) 
1274.469969573453

>  <compound_id>  (1239) 
11056

>  <target_id>  (1239) 
1

>  <reference_id>  (1239) 
82

>  <inspiration_ids>  (1239) 
[69, 82]

>  <energy_score>  (1239) 
1191.7723273247652

>  <distance_score>  (1239) 
10.258873186153624

>  <path>  (1239) 
/opt/xchem-fragalysis-2/maxwin/BulkDock/SCRATCH/511020/C11056-P82/C11056-P82.minimised.mol

>  <scratch_subdir>  (1239) 
/opt/xchem-fragalysis-2/maxwin/BulkDock/SCRATCH/511020/C11056-P82

>  <fragmenstein_runtime>  (1239) 
27.062946319580078

>  <fragmenstein_outcome>  (1239) 
too moved

>  <fragmenstein_mode>  (1239) 
expansion

>  <fragmenstein_error>  (1239) 


$$$$
C52442-P69
     RDKit          3D

 38 41  0  0  0  0  0  0  0  0999 V2000
   -5.3767  -16.7802   19.1800 O   0  0  0  0  0  0  0  0  0  0  0  0
   -6.3925  -17.1601   19.0895 C   0  0  0  0  0  0  0  0  0  0  0  0
   -7.4400  -16.1841   17.8439 N   0  0  0  0  0  0  0  0  0  0  0  0
   -7.0323  -14.5960   16.9383 C   0  0  0  0  0  0  0  0  0  0  0  0
   -5.8558  -13.5543   17.2337 N   0  0  0  0  0  0  0  0  0  0  0  0
   -5.6386  -12.1689   18.0793 C   0  0  0  0  0  0  0  0  0  0  0  0
   -4.0815  -11.3551   18.1197 C   0  0  0  0  0  0  0  0  0  0  0  0
   -3.6751  -10.2144   17.0481 C   0  0  0  0  0  0  0  0  0  0  0  0
   -4.8440   -9.6167   16.3687 C   0  0  0  0  0  0  0  0  0  0  0  0
   -6.2696  -10.2000   16.5986 C   0  0  0  0  0  0  0  0  0  0  0  0
   -6.9510  -11.5147   17.6863 C   0  0  0  0  0  0  0  0  0  0  0  0
   -7.9914  -12.7866   18.0587 S   0  0  0  0  0  0  0  0  0  0  0  0
   -6.6488  -18.1261   20.1234 N   0  0  0  0  0  0  0  0  0  0  0  0
   -5.9527  -18.5412   21.1853 C   0  0  0  0  0  0  0  0  0  0  0  0
   -6.8695  -18.6588   22.4856 C   0  0  0  0  0  0  0  0  0  0  0  0
   -7.1279  -20.0751   22.6590 N   0  0  0  0  0  0  0  0  0  0  0  0
   -8.7439  -20.7251   22.5482 C   0  0  0  0  0  0  0  0  0  0  0  0
   -9.9227  -19.9472   23.1479 N   0  0  0  0  0  0  0  0  0  0  0  0
  -11.1763  -20.4697   23.0244 C   0  0  0  0  0  0  0  0  0  0  0  0
  -11.0931  -21.7782   22.7729 C   0  0  0  0  0  0  0  0  0  0  0  0
   -9.4562  -22.2435   22.9366 S   0  0  0  0  0  0  0  0  0  0  0  0
   -5.6411  -20.4236   21.6279 C   0  0  0  0  0  0  0  0  0  0  0  0
   -6.3471  -19.6889   19.9057 C   0  0  0  0  0  0  0  0  0  0  0  0
   -8.3254  -16.6356   17.7506 H   0  0  0  0  0  0  0  0  0  0  0  0
   -3.2443  -11.8081   18.6535 H   0  0  0  0  0  0  0  0  0  0  0  0
   -2.6561   -9.8604   16.9625 H   0  0  0  0  0  0  0  0  0  0  0  0
   -4.7122   -8.8102   15.6503 H   0  0  0  0  0  0  0  0  0  0  0  0
   -6.8513   -9.6984   15.8030 H   0  0  0  0  0  0  0  0  0  0  0  0
   -4.8378  -18.6229   21.0323 H   0  0  0  0  0  0  0  0  0  0  0  0
   -5.6615  -17.5207   21.5088 H   0  0  0  0  0  0  0  0  0  0  0  0
   -7.7227  -18.0125   22.3500 H   0  0  0  0  0  0  0  0  0  0  0  0
   -6.2753  -18.2996   23.3344 H   0  0  0  0  0  0  0  0  0  0  0  0
  -12.0693  -19.8863   23.1899 H   0  0  0  0  0  0  0  0  0  0  0  0
  -11.9271  -22.4417   22.7090 H   0  0  0  0  0  0  0  0  0  0  0  0
   -5.1223  -21.3832   21.5648 H   0  0  0  0  0  0  0  0  0  0  0  0
   -4.8359  -19.9113   22.2003 H   0  0  0  0  0  0  0  0  0  0  0  0
   -5.5196  -19.8074   19.1906 H   0  0  0  0  0  0  0  0  0  0  0  0
   -7.2580  -20.1937   19.5648 H   0  0  0  0  0  0  0  0  0  0  0  0
  1  2  2  0
  2  3  1  0
  3  4  1  0
  4  5  2  0
  5  6  1  0
  6  7  2  0
  7  8  1  0
  8  9  2  0
  9 10  1  0
 10 11  2  0
 11 12  1  0
  2 13  1  0
 13 14  1  0
 14 15  1  0
 15 16  1  0
 16 17  1  0
 17 18  2  0
 18 19  1  0
 19 20  2  0
 20 21  1  0
 16 22  1  0
 22 23  1  0
 12  4  1  0
 23 13  1  0
 11  6  1  0
 21 17  1  0
  3 24  1  0
  7 25  1  0
  8 26  1  0
  9 27  1  0
 10 28  1  0
 14 29  1  0
 14 30  1  0
 15 31  1  0
 15 32  1  0
 19 33  1  0
 20 34  1  0
 22 35  1  0
 22 36  1  0
 23 37  1  0
 23 38  1  0
M  END
>  <Energy>  (1240) 
966.49326757814731

>  <compound_id>  (1240) 
52442

>  <target_id>  (1240) 
1

>  <reference_id>  (1240) 
69

>  <inspiration_ids>  (1240) 
[69, 82]

>  <energy_score>  (1240) 
894.6870051604233

>  <distance_score>  (1240) 
13.048424516498986

>  <path>  (1240) 
/opt/xchem-fragalysis-2/maxwin/BulkDock/SCRATCH/511020/C52442-P69/C52442-P69.minimised.mol

>  <scratch_subdir>  (1240) 
/opt/xchem-fragalysis-2/maxwin/BulkDock/SCRATCH/511020/C52442-P69

>  <fragmenstein_runtime>  (1240) 
27.432443380355835

>  <fragmenstein_outcome>  (1240) 
too moved

>  <fragmenstein_mode>  (1240) 
expansion

>  <fragmenstein_error>  (1240) 


$$$$
C52442-P82
     RDKit          3D

 38 41  0  0  0  0  0  0  0  0999 V2000
  -12.7628  -15.5071   20.3729 O   0  0  0  0  0  0  0  0  0  0  0  0
  -12.5451  -14.7244   21.2211 C   0  0  0  0  0  0  0  0  0  0  0  0
  -11.2122  -13.5121   21.1674 N   0  0  0  0  0  0  0  0  0  0  0  0
   -9.9423  -13.0844   19.7503 C   0  0  0  0  0  0  0  0  0  0  0  0
   -9.6606  -11.7972   19.0361 N   0  0  0  0  0  0  0  0  0  0  0  0
   -8.1900  -10.7352   19.0514 C   0  0  0  0  0  0  0  0  0  0  0  0
   -8.1807   -9.0612   18.6937 C   0  0  0  0  0  0  0  0  0  0  0  0
   -7.3714   -8.4321   17.4815 C   0  0  0  0  0  0  0  0  0  0  0  0
   -6.5424   -9.3383   16.7665 C   0  0  0  0  0  0  0  0  0  0  0  0
   -6.5312  -10.8272   17.2627 C   0  0  0  0  0  0  0  0  0  0  0  0
   -7.4519  -11.6250   18.2907 C   0  0  0  0  0  0  0  0  0  0  0  0
   -8.1786  -13.2938   19.1159 S   0  0  0  0  0  0  0  0  0  0  0  0
  -13.3467  -14.4568   22.4463 N   0  0  0  0  0  0  0  0  0  0  0  0
  -14.6828  -15.0016   22.8900 C   0  0  0  0  0  0  0  0  0  0  0  0
  -15.0432  -16.4399   22.4061 C   0  0  0  0  0  0  0  0  0  0  0  0
  -14.1653  -17.4267   23.0400 N   0  0  0  0  0  0  0  0  0  0  0  0
  -14.8405  -18.5213   23.5034 C   0  0  0  0  0  0  0  0  0  0  0  0
  -15.5591  -18.5222   24.6062 N   0  0  0  0  0  0  0  0  0  0  0  0
  -16.3181  -19.6747   24.6681 C   0  0  0  0  0  0  0  0  0  0  0  0
  -16.0930  -20.5911   23.6657 C   0  0  0  0  0  0  0  0  0  0  0  0
  -14.8944  -19.9915   22.6011 S   0  0  0  0  0  0  0  0  0  0  0  0
  -13.3040  -16.7631   23.9877 C   0  0  0  0  0  0  0  0  0  0  0  0
  -12.8803  -15.3097   23.5703 C   0  0  0  0  0  0  0  0  0  0  0  0
  -11.1814  -13.0079   22.0598 H   0  0  0  0  0  0  0  0  0  0  0  0
   -8.7169   -8.3837   19.3566 H   0  0  0  0  0  0  0  0  0  0  0  0
   -7.3703   -7.3605   17.3179 H   0  0  0  0  0  0  0  0  0  0  0  0
   -5.7973   -9.0071   16.0513 H   0  0  0  0  0  0  0  0  0  0  0  0
   -5.5568  -11.2590   17.1432 H   0  0  0  0  0  0  0  0  0  0  0  0
  -15.3735  -14.3607   22.3199 H   0  0  0  0  0  0  0  0  0  0  0  0
  -14.9718  -14.7723   23.9319 H   0  0  0  0  0  0  0  0  0  0  0  0
  -16.1029  -16.6147   22.6377 H   0  0  0  0  0  0  0  0  0  0  0  0
  -14.9380  -16.5154   21.3183 H   0  0  0  0  0  0  0  0  0  0  0  0
  -17.0128  -19.8095   25.4882 H   0  0  0  0  0  0  0  0  0  0  0  0
  -16.5476  -21.5597   23.5270 H   0  0  0  0  0  0  0  0  0  0  0  0
  -12.3808  -17.3354   24.1114 H   0  0  0  0  0  0  0  0  0  0  0  0
  -13.7924  -16.6805   24.9674 H   0  0  0  0  0  0  0  0  0  0  0  0
  -12.9667  -14.7247   24.4946 H   0  0  0  0  0  0  0  0  0  0  0  0
  -11.8778  -15.5081   23.2445 H   0  0  0  0  0  0  0  0  0  0  0  0
  1  2  2  0
  2  3  1  0
  3  4  1  0
  4  5  2  0
  5  6  1  0
  6  7  2  0
  7  8  1  0
  8  9  2  0
  9 10  1  0
 10 11  2  0
 11 12  1  0
  2 13  1  0
 13 14  1  0
 14 15  1  0
 15 16  1  0
 16 17  1  0
 17 18  2  0
 18 19  1  0
 19 20  2  0
 20 21  1  0
 16 22  1  0
 22 23  1  0
 12  4  1  0
 23 13  1  0
 11  6  1  0
 21 17  1  0
  3 24  1  0
  7 25  1  0
  8 26  1  0
  9 27  1  0
 10 28  1  0
 14 29  1  0
 14 30  1  0
 15 31  1  0
 15 32  1  0
 19 33  1  0
 20 34  1  0
 22 35  1  0
 22 36  1  0
 23 37  1  0
 23 38  1  0
M  END
>  <Energy>  (1241) 
545.2912750151155

>  <compound_id>  (1241) 
52442

>  <target_id>  (1241) 
1

>  <reference_id>  (1241) 
82

>  <inspiration_ids>  (1241) 
[69, 82]

>  <energy_score>  (1241) 
473.4850125973971

>  <distance_score>  (1241) 
13.19169765529485

>  <path>  (1241) 
/opt/xchem-fragalysis-2/maxwin/BulkDock/SCRATCH/511020/C52442-P82/C52442-P82.minimised.mol

>  <scratch_subdir>  (1241) 
/opt/xchem-fragalysis-2/maxwin/BulkDock/SCRATCH/511020/C52442-P82

>  <fragmenstein_runtime>  (1241) 
19.660898685455322

>  <fragmenstein_outcome>  (1241) 
too moved

>  <fragmenstein_mode>  (1241) 
expansion

>  <fragmenstein_error>  (1241) 


$$$$
C11057-P69
     RDKit          3D

 45 48  0  0  0  0  0  0  0  0999 V2000
   -7.5267  -13.0689   19.7743 O   0  0  0  0  0  0  0  0  0  0  0  0
   -8.1398  -13.6718   18.9643 C   0  0  0  0  0  0  0  0  0  0  0  0
   -8.3788  -12.4394   17.3009 C   0  0  0  0  0  0  0  0  0  0  0  0
   -8.5381  -11.5512   15.3550 C   0  0  0  0  0  0  0  0  0  0  0  0
   -7.5315  -10.1578   14.2559 C   0  0  0  0  0  0  0  0  0  0  0  0
   -7.5231   -8.9988   13.3708 N   0  0  0  0  0  0  0  0  0  0  0  0
   -5.9618   -8.5448   12.5100 C   0  0  0  0  0  0  0  0  0  0  0  0
   -5.6009   -7.5536   11.3520 C   0  0  0  0  0  0  0  0  0  0  0  0
   -4.3426   -7.2702   10.8097 C   0  0  0  0  0  0  0  0  0  0  0  0
   -3.6343   -8.3896   10.6040 C   0  0  0  0  0  0  0  0  0  0  0  0
   -4.0760   -9.4746   11.3250 C   0  0  0  0  0  0  0  0  0  0  0  0
   -4.9791   -9.4753   12.4923 C   0  0  0  0  0  0  0  0  0  0  0  0
   -5.3752  -10.6270   13.7295 S   0  0  0  0  0  0  0  0  0  0  0  0
   -8.3835  -15.5645   19.5834 N   0  0  0  0  0  0  0  0  0  0  0  0
   -7.0650  -16.9761   19.1014 C   0  0  0  0  0  0  0  0  0  0  0  0
   -6.8300  -18.8215   19.4663 C   0  0  0  0  0  0  0  0  0  0  0  0
   -7.3403  -19.4043   20.7531 N   0  0  0  0  0  0  0  0  0  0  0  0
   -8.5156  -20.6853   21.0948 C   0  0  0  0  0  0  0  0  0  0  0  0
   -9.4776  -21.0696   20.1970 C   0  0  0  0  0  0  0  0  0  0  0  0
  -10.5374  -22.0214   20.5787 C   0  0  0  0  0  0  0  0  0  0  0  0
  -11.0179  -22.1966   21.8439 C   0  0  0  0  0  0  0  0  0  0  0  0
  -10.3396  -21.4751   22.7359 C   0  0  0  0  0  0  0  0  0  0  0  0
   -9.1207  -20.9005   22.4627 N   0  0  0  0  0  0  0  0  0  0  0  0
   -7.2272  -18.2354   21.7151 C   0  0  0  0  0  0  0  0  0  0  0  0
   -7.7027  -16.4985   21.2442 C   0  0  0  0  0  0  0  0  0  0  0  0
   -7.7010  -13.2152   16.9107 H   0  0  0  0  0  0  0  0  0  0  0  0
   -7.6365  -11.7505   17.7391 H   0  0  0  0  0  0  0  0  0  0  0  0
   -9.5200  -11.1036   15.0633 H   0  0  0  0  0  0  0  0  0  0  0  0
   -8.7852  -12.3606   14.6226 H   0  0  0  0  0  0  0  0  0  0  0  0
   -6.1946   -7.8642   10.4592 H   0  0  0  0  0  0  0  0  0  0  0  0
   -4.0480   -6.3283   10.3760 H   0  0  0  0  0  0  0  0  0  0  0  0
   -2.7102   -8.4506   10.0483 H   0  0  0  0  0  0  0  0  0  0  0  0
   -3.6780  -10.3939   11.0547 H   0  0  0  0  0  0  0  0  0  0  0  0
   -6.0245  -16.8457   19.4366 H   0  0  0  0  0  0  0  0  0  0  0  0
   -7.3425  -17.0177   18.0400 H   0  0  0  0  0  0  0  0  0  0  0  0
   -5.7360  -18.9189   19.4679 H   0  0  0  0  0  0  0  0  0  0  0  0
   -7.1797  -19.4222   18.6357 H   0  0  0  0  0  0  0  0  0  0  0  0
   -9.1398  -20.7849   19.1944 H   0  0  0  0  0  0  0  0  0  0  0  0
  -11.0782  -22.5907   19.8400 H   0  0  0  0  0  0  0  0  0  0  0  0
  -11.9193  -22.7426   22.0736 H   0  0  0  0  0  0  0  0  0  0  0  0
  -10.8055  -21.2292   23.6726 H   0  0  0  0  0  0  0  0  0  0  0  0
   -7.6072  -18.4903   22.6926 H   0  0  0  0  0  0  0  0  0  0  0  0
   -6.1565  -18.1191   21.9061 H   0  0  0  0  0  0  0  0  0  0  0  0
   -7.8244  -16.1817   22.2179 H   0  0  0  0  0  0  0  0  0  0  0  0
   -6.6770  -16.2901   21.0123 H   0  0  0  0  0  0  0  0  0  0  0  0
  1  2  2  0
  2  3  1  0
  3  4  1  0
  4  5  1  0
  5  6  2  0
  6  7  1  0
  7  8  2  0
  8  9  1  0
  9 10  2  0
 10 11  1  0
 11 12  2  0
 12 13  1  0
  2 14  1  0
 14 15  1  0
 15 16  1  0
 16 17  1  0
 17 18  1  0
 18 19  2  0
 19 20  1  0
 20 21  2  0
 21 22  1  0
 22 23  2  0
 17 24  1  0
 24 25  1  0
 13  5  1  0
 25 14  1  0
 12  7  1  0
 23 18  1  0
  3 26  1  0
  3 27  1  0
  4 28  1  0
  4 29  1  0
  8 30  1  0
  9 31  1  0
 10 32  1  0
 11 33  1  0
 15 34  1  0
 15 35  1  0
 16 36  1  0
 16 37  1  0
 19 38  1  0
 20 39  1  0
 21 40  1  0
 22 41  1  0
 24 42  1  0
 24 43  1  0
 25 44  1  0
 25 45  1  0
M  END
>  <Energy>  (1242) 
1240.8117111542085

>  <compound_id>  (1242) 
11057

>  <target_id>  (1242) 
1

>  <reference_id>  (1242) 
69

>  <inspiration_ids>  (1242) 
[69, 82]

>  <energy_score>  (1242) 
1119.5382493998504

>  <distance_score>  (1242) 
10.496000880591598

>  <path>  (1242) 
/opt/xchem-fragalysis-2/maxwin/BulkDock/SCRATCH/511020/C11057-P69/C11057-P69.minimised.mol

>  <scratch_subdir>  (1242) 
/opt/xchem-fragalysis-2/maxwin/BulkDock/SCRATCH/511020/C11057-P69

>  <fragmenstein_runtime>  (1242) 
21.52970004081726

>  <fragmenstein_outcome>  (1242) 
too moved

>  <fragmenstein_mode>  (1242) 
expansion

>  <fragmenstein_error>  (1242) 


$$$$
C11057-P82
     RDKit          3D

 45 48  0  0  0  0  0  0  0  0999 V2000
   -4.9752  -11.3582   18.0035 O   0  0  0  0  0  0  0  0  0  0  0  0
   -5.3764  -11.6195   16.9332 C   0  0  0  0  0  0  0  0  0  0  0  0
   -5.7982  -10.3064   15.1917 C   0  0  0  0  0  0  0  0  0  0  0  0
   -5.3975   -9.2414   13.2810 C   0  0  0  0  0  0  0  0  0  0  0  0
   -5.5704   -7.9460   11.5929 C   0  0  0  0  0  0  0  0  0  0  0  0
   -6.4566   -7.6232   10.3077 N   0  0  0  0  0  0  0  0  0  0  0  0
   -6.9452   -5.9840    9.5081 C   0  0  0  0  0  0  0  0  0  0  0  0
   -8.0533   -4.7939    8.8896 C   0  0  0  0  0  0  0  0  0  0  0  0
   -8.1392   -3.8376    7.8207 C   0  0  0  0  0  0  0  0  0  0  0  0
   -7.0220   -3.5706    7.1390 C   0  0  0  0  0  0  0  0  0  0  0  0
   -5.9567   -4.1091    7.8048 C   0  0  0  0  0  0  0  0  0  0  0  0
   -5.9531   -5.3458    9.1607 C   0  0  0  0  0  0  0  0  0  0  0  0
   -4.4936   -6.2981   10.7195 S   0  0  0  0  0  0  0  0  0  0  0  0
   -5.5435  -13.4925   16.5679 N   0  0  0  0  0  0  0  0  0  0  0  0
   -7.0159  -14.5219   16.8447 C   0  0  0  0  0  0  0  0  0  0  0  0
   -7.5974  -16.3366   17.4295 C   0  0  0  0  0  0  0  0  0  0  0  0
   -6.3944  -17.4831   18.3581 N   0  0  0  0  0  0  0  0  0  0  0  0
   -6.2445  -17.8481   19.6571 C   0  0  0  0  0  0  0  0  0  0  0  0
   -5.6302  -18.9991   19.8895 C   0  0  0  0  0  0  0  0  0  0  0  0
   -6.3786  -19.6912   20.7744 C   0  0  0  0  0  0  0  0  0  0  0  0
   -6.8329  -19.1511   21.9501 C   0  0  0  0  0  0  0  0  0  0  0  0
   -7.0691  -17.8683   21.7874 C   0  0  0  0  0  0  0  0  0  0  0  0
   -6.7820  -17.1991   20.6609 N   0  0  0  0  0  0  0  0  0  0  0  0
   -4.8159  -16.8414   17.8975 C   0  0  0  0  0  0  0  0  0  0  0  0
   -5.0471  -15.0405   17.5226 C   0  0  0  0  0  0  0  0  0  0  0  0
   -6.8410   -9.9906   15.4548 H   0  0  0  0  0  0  0  0  0  0  0  0
   -5.5755  -10.9379   14.3042 H   0  0  0  0  0  0  0  0  0  0  0  0
   -6.4881   -8.9670   13.3052 H   0  0  0  0  0  0  0  0  0  0  0  0
   -4.9660  -10.0367   12.6950 H   0  0  0  0  0  0  0  0  0  0  0  0
   -9.0413   -4.7160    9.3926 H   0  0  0  0  0  0  0  0  0  0  0  0
   -9.0756   -3.3249    7.6186 H   0  0  0  0  0  0  0  0  0  0  0  0
   -6.9456   -2.8564    6.3353 H   0  0  0  0  0  0  0  0  0  0  0  0
   -4.9460   -3.7479    7.5288 H   0  0  0  0  0  0  0  0  0  0  0  0
   -7.6691  -13.7173   17.2304 H   0  0  0  0  0  0  0  0  0  0  0  0
   -7.1426  -14.7758   15.7846 H   0  0  0  0  0  0  0  0  0  0  0  0
   -8.0751  -16.9026   16.6449 H   0  0  0  0  0  0  0  0  0  0  0  0
   -8.3601  -16.1172   18.1756 H   0  0  0  0  0  0  0  0  0  0  0  0
   -5.0203  -19.4276   19.1310 H   0  0  0  0  0  0  0  0  0  0  0  0
   -7.3015  -19.9497   20.2302 H   0  0  0  0  0  0  0  0  0  0  0  0
   -7.2862  -19.6946   22.7476 H   0  0  0  0  0  0  0  0  0  0  0  0
   -7.5879  -17.3041   22.5121 H   0  0  0  0  0  0  0  0  0  0  0  0
   -4.3717  -17.3587   17.0405 H   0  0  0  0  0  0  0  0  0  0  0  0
   -4.0910  -17.0279   18.6976 H   0  0  0  0  0  0  0  0  0  0  0  0
   -4.0068  -15.1071   16.9787 H   0  0  0  0  0  0  0  0  0  0  0  0
   -5.5632  -15.7267   16.7653 H   0  0  0  0  0  0  0  0  0  0  0  0
  1  2  2  0
  2  3  1  0
  3  4  1  0
  4  5  1  0
  5  6  2  0
  6  7  1  0
  7  8  2  0
  8  9  1  0
  9 10  2  0
 10 11  1  0
 11 12  2  0
 12 13  1  0
  2 14  1  0
 14 15  1  0
 15 16  1  0
 16 17  1  0
 17 18  1  0
 18 19  2  0
 19 20  1  0
 20 21  2  0
 21 22  1  0
 22 23  2  0
 17 24  1  0
 24 25  1  0
 13  5  1  0
 25 14  1  0
 12  7  1  0
 23 18  1  0
  3 26  1  0
  3 27  1  0
  4 28  1  0
  4 29  1  0
  8 30  1  0
  9 31  1  0
 10 32  1  0
 11 33  1  0
 15 34  1  0
 15 35  1  0
 16 36  1  0
 16 37  1  0
 19 38  1  0
 20 39  1  0
 21 40  1  0
 22 41  1  0
 24 42  1  0
 24 43  1  0
 25 44  1  0
 25 45  1  0
M  END
>  <Energy>  (1243) 
1581.4275547189422

>  <compound_id>  (1243) 
11057

>  <target_id>  (1243) 
1

>  <reference_id>  (1243) 
82

>  <inspiration_ids>  (1243) 
[69, 82]

>  <energy_score>  (1243) 
1460.1540929645903

>  <distance_score>  (1243) 
9.866911417747723

>  <path>  (1243) 
/opt/xchem-fragalysis-2/maxwin/BulkDock/SCRATCH/511020/C11057-P82/C11057-P82.minimised.mol

>  <scratch_subdir>  (1243) 
/opt/xchem-fragalysis-2/maxwin/BulkDock/SCRATCH/511020/C11057-P82

>  <fragmenstein_runtime>  (1243) 
28.01513123512268

>  <fragmenstein_outcome>  (1243) 
too moved

>  <fragmenstein_mode>  (1243) 
expansion

>  <fragmenstein_error>  (1243) 


$$$$
C11058-P69
     RDKit          3D

 48 51  0  0  0  0  0  0  0  0999 V2000
   -2.2477   -7.7492   10.2994 O   0  0  0  0  0  0  0  0  0  0  0  0
   -3.4083   -7.3710   10.4191 C   0  0  0  0  0  0  0  0  0  0  0  0
   -4.6032   -8.6886   11.3623 C   0  0  0  0  0  0  0  0  0  0  0  0
   -4.5912   -9.2475   13.0993 N   0  0  0  0  0  0  0  0  0  0  0  0
   -5.8976  -10.1740   14.1809 C   0  0  0  0  0  0  0  0  0  0  0  0
   -6.8716  -10.5652   13.6708 O   0  0  0  0  0  0  0  0  0  0  0  0
   -5.9152  -10.3831   16.1947 N   0  0  0  0  0  0  0  0  0  0  0  0
   -5.3198  -11.8229   17.3893 C   0  0  0  0  0  0  0  0  0  0  0  0
   -6.3749  -12.3717   18.9945 C   0  0  0  0  0  0  0  0  0  0  0  0
   -8.0344  -13.3317   19.1341 N   0  0  0  0  0  0  0  0  0  0  0  0
   -8.6205  -15.0980   19.3258 C   0  0  0  0  0  0  0  0  0  0  0  0
   -8.0093  -16.1641   18.3453 C   0  0  0  0  0  0  0  0  0  0  0  0
   -6.8702  -17.3858   18.8732 C   0  0  0  0  0  0  0  0  0  0  0  0
   -6.2839  -17.6627   20.1482 C   0  0  0  0  0  0  0  0  0  0  0  0
   -6.8972  -16.8994   21.1021 C   0  0  0  0  0  0  0  0  0  0  0  0
   -8.0063  -15.7538   20.7743 N   0  0  0  0  0  0  0  0  0  0  0  0
   -8.5472  -12.3330   18.1835 C   0  0  0  0  0  0  0  0  0  0  0  0
   -7.2642  -11.0197   17.3565 C   0  0  0  0  0  0  0  0  0  0  0  0
   -4.1413   -6.0026    9.7984 N   0  0  0  0  0  0  0  0  0  0  0  0
   -3.5316   -4.7479    8.6611 C   0  0  0  0  0  0  0  0  0  0  0  0
   -3.8097   -4.6582    7.3009 N   0  0  0  0  0  0  0  0  0  0  0  0
   -4.8503   -3.6343    6.8664 C   0  0  0  0  0  0  0  0  0  0  0  0
   -6.0277   -3.7362    6.0609 C   0  0  0  0  0  0  0  0  0  0  0  0
   -6.8396   -2.6180    5.8036 C   0  0  0  0  0  0  0  0  0  0  0  0
   -6.4974   -1.3743    6.3073 C   0  0  0  0  0  0  0  0  0  0  0  0
   -5.3531   -1.2374    7.0861 C   0  0  0  0  0  0  0  0  0  0  0  0
   -4.6010   -2.3926    7.3525 C   0  0  0  0  0  0  0  0  0  0  0  0
   -3.2360   -2.5991    8.2895 S   0  0  0  0  0  0  0  0  0  0  0  0
   -5.5931   -8.2688   11.1941 H   0  0  0  0  0  0  0  0  0  0  0  0
   -4.3530   -9.5706   10.7797 H   0  0  0  0  0  0  0  0  0  0  0  0
   -3.7672   -9.0556   13.6561 H   0  0  0  0  0  0  0  0  0  0  0  0
   -4.4027  -11.4281   17.8761 H   0  0  0  0  0  0  0  0  0  0  0  0
   -5.2686  -12.8728   17.0961 H   0  0  0  0  0  0  0  0  0  0  0  0
   -6.7671  -12.5715   18.0571 H   0  0  0  0  0  0  0  0  0  0  0  0
   -6.6621  -11.5096   19.5497 H   0  0  0  0  0  0  0  0  0  0  0  0
   -8.1902  -16.2736   17.2941 H   0  0  0  0  0  0  0  0  0  0  0  0
   -6.8261  -18.2646   18.2515 H   0  0  0  0  0  0  0  0  0  0  0  0
   -5.7187  -18.5577   20.3581 H   0  0  0  0  0  0  0  0  0  0  0  0
   -6.9548  -17.2363   22.1385 H   0  0  0  0  0  0  0  0  0  0  0  0
   -8.8999  -11.7858   19.0501 H   0  0  0  0  0  0  0  0  0  0  0  0
   -9.5999  -12.3106   17.8668 H   0  0  0  0  0  0  0  0  0  0  0  0
   -7.3912  -10.0338   17.8851 H   0  0  0  0  0  0  0  0  0  0  0  0
   -7.8579  -11.4204   16.4724 H   0  0  0  0  0  0  0  0  0  0  0  0
   -5.1213   -6.0267   10.0092 H   0  0  0  0  0  0  0  0  0  0  0  0
   -6.3727   -4.6866    5.6652 H   0  0  0  0  0  0  0  0  0  0  0  0
   -7.7422   -2.7387    5.2081 H   0  0  0  0  0  0  0  0  0  0  0  0
   -7.1265   -0.5118    6.1032 H   0  0  0  0  0  0  0  0  0  0  0  0
   -5.0738   -0.2805    7.5121 H   0  0  0  0  0  0  0  0  0  0  0  0
  1  2  2  0
  2  3  1  0
  3  4  1  0
  4  5  1  0
  5  6  2  0
  5  7  1  0
  7  8  1  0
  8  9  1  0
  9 10  1  0
 10 11  1  0
 11 12  2  0
 12 13  1  0
 13 14  2  0
 14 15  1  0
 15 16  2  0
 10 17  1  0
 17 18  1  0
  2 19  1  0
 19 20  1  0
 20 21  2  0
 21 22  1  0
 22 23  2  0
 23 24  1  0
 24 25  2  0
 25 26  1  0
 26 27  2  0
 27 28  1  0
 18  7  1  0
 28 20  1  0
 16 11  1  0
 27 22  1  0
  3 29  1  0
  3 30  1  0
  4 31  1  0
  8 32  1  0
  8 33  1  0
  9 34  1  0
  9 35  1  0
 12 36  1  0
 13 37  1  0
 14 38  1  0
 15 39  1  0
 17 40  1  0
 17 41  1  0
 18 42  1  0
 18 43  1  0
 19 44  1  0
 23 45  1  0
 24 46  1  0
 25 47  1  0
 26 48  1  0
M  END
>  <Energy>  (1244) 
1423.7046391305541

>  <compound_id>  (1244) 
11058

>  <target_id>  (1244) 
1

>  <reference_id>  (1244) 
69

>  <inspiration_ids>  (1244) 
[69, 82]

>  <energy_score>  (1244) 
1354.2093717832909

>  <distance_score>  (1244) 
10.431746855095586

>  <path>  (1244) 
/opt/xchem-fragalysis-2/maxwin/BulkDock/SCRATCH/511020/C11058-P69/C11058-P69.minimised.mol

>  <scratch_subdir>  (1244) 
/opt/xchem-fragalysis-2/maxwin/BulkDock/SCRATCH/511020/C11058-P69

>  <fragmenstein_runtime>  (1244) 
43.05785870552063

>  <fragmenstein_outcome>  (1244) 
too moved

>  <fragmenstein_mode>  (1244) 
expansion

>  <fragmenstein_error>  (1244) 


$$$$
C11058-P82
     RDKit          3D

 48 51  0  0  0  0  0  0  0  0999 V2000
   -7.4393  -10.1731   14.0430 O   0  0  0  0  0  0  0  0  0  0  0  0
   -6.2149  -10.0791   14.2169 C   0  0  0  0  0  0  0  0  0  0  0  0
   -5.6511  -10.9856   16.1811 C   0  0  0  0  0  0  0  0  0  0  0  0
   -5.4892  -13.1022   16.6056 N   0  0  0  0  0  0  0  0  0  0  0  0
   -6.7593  -14.3052   16.9595 C   0  0  0  0  0  0  0  0  0  0  0  0
   -7.7074  -13.8087   17.0976 O   0  0  0  0  0  0  0  0  0  0  0  0
   -6.9317  -16.0956   17.0926 N   0  0  0  0  0  0  0  0  0  0  0  0
   -6.7670  -17.3431   18.6551 C   0  0  0  0  0  0  0  0  0  0  0  0
   -6.5562  -17.4794   20.2779 C   0  0  0  0  0  0  0  0  0  0  0  0
   -7.7011  -16.8612   21.0115 N   0  0  0  0  0  0  0  0  0  0  0  0
   -8.0833  -18.2471   22.2140 C   0  0  0  0  0  0  0  0  0  0  0  0
   -7.7184  -19.6251   22.1880 C   0  0  0  0  0  0  0  0  0  0  0  0
   -9.0020  -21.0280   22.3018 C   0  0  0  0  0  0  0  0  0  0  0  0
  -10.2638  -21.2783   22.8197 C   0  0  0  0  0  0  0  0  0  0  0  0
  -10.4310  -20.1185   23.4213 C   0  0  0  0  0  0  0  0  0  0  0  0
   -9.4810  -18.6705   23.1603 N   0  0  0  0  0  0  0  0  0  0  0  0
   -8.5363  -16.0670   19.3138 C   0  0  0  0  0  0  0  0  0  0  0  0
   -8.0807  -16.8990   17.4505 C   0  0  0  0  0  0  0  0  0  0  0  0
   -5.1459   -9.0780   12.9350 N   0  0  0  0  0  0  0  0  0  0  0  0
   -5.6214   -8.0232   11.4132 C   0  0  0  0  0  0  0  0  0  0  0  0
   -6.5518   -7.6765   10.2483 N   0  0  0  0  0  0  0  0  0  0  0  0
   -6.9695   -5.9995    9.4830 C   0  0  0  0  0  0  0  0  0  0  0  0
   -8.0715   -4.7941    8.8610 C   0  0  0  0  0  0  0  0  0  0  0  0
   -8.1494   -3.8263    7.8057 C   0  0  0  0  0  0  0  0  0  0  0  0
   -7.0269   -3.5633    7.1335 C   0  0  0  0  0  0  0  0  0  0  0  0
   -5.9701   -4.1124    7.8045 C   0  0  0  0  0  0  0  0  0  0  0  0
   -5.9758   -5.3481    9.1592 C   0  0  0  0  0  0  0  0  0  0  0  0
   -4.5255   -6.3282   10.7000 S   0  0  0  0  0  0  0  0  0  0  0  0
   -5.0021  -10.3983   16.8428 H   0  0  0  0  0  0  0  0  0  0  0  0
   -5.4192  -10.9363   14.7587 H   0  0  0  0  0  0  0  0  0  0  0  0
   -4.6085  -13.5899   16.5828 H   0  0  0  0  0  0  0  0  0  0  0  0
   -6.9473  -18.3964   18.3404 H   0  0  0  0  0  0  0  0  0  0  0  0
   -5.6469  -17.4767   18.5089 H   0  0  0  0  0  0  0  0  0  0  0  0
   -5.6165  -17.1991   20.6958 H   0  0  0  0  0  0  0  0  0  0  0  0
   -6.5240  -18.5605   20.3668 H   0  0  0  0  0  0  0  0  0  0  0  0
   -6.7768  -19.8151   21.6775 H   0  0  0  0  0  0  0  0  0  0  0  0
   -9.1260  -21.6466   21.3660 H   0  0  0  0  0  0  0  0  0  0  0  0
  -10.8809  -22.1459   22.7713 H   0  0  0  0  0  0  0  0  0  0  0  0
  -11.2654  -20.0785   24.1251 H   0  0  0  0  0  0  0  0  0  0  0  0
   -8.6436  -14.9569   19.2670 H   0  0  0  0  0  0  0  0  0  0  0  0
   -9.6075  -16.0242   19.5129 H   0  0  0  0  0  0  0  0  0  0  0  0
   -8.2560  -17.9322   17.2375 H   0  0  0  0  0  0  0  0  0  0  0  0
   -8.8315  -16.3865   16.9786 H   0  0  0  0  0  0  0  0  0  0  0  0
   -4.1593   -9.1741   13.1829 H   0  0  0  0  0  0  0  0  0  0  0  0
   -9.0584   -4.7174    9.3666 H   0  0  0  0  0  0  0  0  0  0  0  0
   -9.0824   -3.3079    7.6040 H   0  0  0  0  0  0  0  0  0  0  0  0
   -6.9403   -2.8453    6.3345 H   0  0  0  0  0  0  0  0  0  0  0  0
   -4.9578   -3.7511    7.5335 H   0  0  0  0  0  0  0  0  0  0  0  0
  1  2  2  0
  2  3  1  0
  3  4  1  0
  4  5  1  0
  5  6  2  0
  5  7  1  0
  7  8  1  0
  8  9  1  0
  9 10  1  0
 10 11  1  0
 11 12  2  0
 12 13  1  0
 13 14  2  0
 14 15  1  0
 15 16  2  0
 10 17  1  0
 17 18  1  0
  2 19  1  0
 19 20  1  0
 20 21  2  0
 21 22  1  0
 22 23  2  0
 23 24  1  0
 24 25  2  0
 25 26  1  0
 26 27  2  0
 27 28  1  0
 18  7  1  0
 28 20  1  0
 16 11  1  0
 27 22  1  0
  3 29  1  0
  3 30  1  0
  4 31  1  0
  8 32  1  0
  8 33  1  0
  9 34  1  0
  9 35  1  0
 12 36  1  0
 13 37  1  0
 14 38  1  0
 15 39  1  0
 17 40  1  0
 17 41  1  0
 18 42  1  0
 18 43  1  0
 19 44  1  0
 23 45  1  0
 24 46  1  0
 25 47  1  0
 26 48  1  0
M  END
>  <Energy>  (1245) 
2018.4843533646711

>  <compound_id>  (1245) 
11058

>  <target_id>  (1245) 
1

>  <reference_id>  (1245) 
82

>  <inspiration_ids>  (1245) 
[69, 82]

>  <energy_score>  (1245) 
1948.989086017442

>  <distance_score>  (1245) 
8.17428356803671

>  <path>  (1245) 
/opt/xchem-fragalysis-2/maxwin/BulkDock/SCRATCH/511020/C11058-P82/C11058-P82.minimised.mol

>  <scratch_subdir>  (1245) 
/opt/xchem-fragalysis-2/maxwin/BulkDock/SCRATCH/511020/C11058-P82

>  <fragmenstein_runtime>  (1245) 
30.261064291000366

>  <fragmenstein_outcome>  (1245) 
too moved

>  <fragmenstein_mode>  (1245) 
expansion

>  <fragmenstein_error>  (1245) 


$$$$
C46367-P3
     RDKit          3D

 31 33  0  0  0  0  0  0  0  0999 V2000
  -12.0078  -28.2491   30.2283 C   0  0  0  0  0  0  0  0  0  0  0  0
  -12.2417  -27.4683   31.5393 C   0  0  0  0  0  0  0  0  0  0  0  0
  -11.8375  -25.9811   31.5211 C   0  0  0  0  0  0  0  0  0  0  0  0
  -11.7405  -25.4521   30.1487 C   0  0  0  0  0  0  0  0  0  0  0  0
  -11.3747  -24.2052   29.7131 N   0  0  0  0  0  0  0  0  0  0  0  0
  -11.6499  -24.1666   28.3601 C   0  0  0  0  0  0  0  0  0  0  0  0
  -11.5182  -22.9829   27.4755 C   0  0  0  0  0  0  0  0  0  0  0  0
  -12.6997  -22.9103   26.5185 C   0  0  0  0  0  0  0  0  0  0  0  0
  -12.5729  -21.5131   25.9758 C   0  0  0  0  0  0  0  0  0  0  0  0
  -12.0346  -20.7358   27.1661 C   0  0  0  0  0  0  0  0  0  0  0  0
  -11.5548  -21.6954   28.1731 N   0  0  0  0  0  0  0  0  0  0  0  0
  -12.0224  -25.3515   27.9230 N   0  0  0  0  0  0  0  0  0  0  0  0
  -12.0845  -26.1373   29.0153 C   0  0  0  0  0  0  0  0  0  0  0  0
  -12.5523  -27.5289   28.9946 C   0  0  0  0  0  0  0  0  0  0  0  0
  -10.9359  -28.3767   30.0721 H   0  0  0  0  0  0  0  0  0  0  0  0
  -12.4479  -29.2494   30.3050 H   0  0  0  0  0  0  0  0  0  0  0  0
  -13.3181  -27.5238   31.7571 H   0  0  0  0  0  0  0  0  0  0  0  0
  -11.7553  -27.9783   32.3788 H   0  0  0  0  0  0  0  0  0  0  0  0
  -10.9475  -25.7610   32.1105 H   0  0  0  0  0  0  0  0  0  0  0  0
  -12.6674  -25.4870   32.0168 H   0  0  0  0  0  0  0  0  0  0  0  0
  -11.0033  -23.4325   30.2539 H   0  0  0  0  0  0  0  0  0  0  0  0
  -10.5892  -23.0518   26.9006 H   0  0  0  0  0  0  0  0  0  0  0  0
  -12.6617  -23.6647   25.7323 H   0  0  0  0  0  0  0  0  0  0  0  0
  -13.6582  -23.0302   27.0406 H   0  0  0  0  0  0  0  0  0  0  0  0
  -13.5265  -21.1291   25.6076 H   0  0  0  0  0  0  0  0  0  0  0  0
  -11.8611  -21.4984   25.1439 H   0  0  0  0  0  0  0  0  0  0  0  0
  -12.8100  -20.1210   27.6089 H   0  0  0  0  0  0  0  0  0  0  0  0
  -11.2436  -20.0463   26.9090 H   0  0  0  0  0  0  0  0  0  0  0  0
  -12.2706  -21.7280   28.8861 H   0  0  0  0  0  0  0  0  0  0  0  0
  -13.6481  -27.5476   29.0057 H   0  0  0  0  0  0  0  0  0  0  0  0
  -12.2222  -28.0375   28.0867 H   0  0  0  0  0  0  0  0  0  0  0  0
  1  2  1  0
  2  3  1  0
  3  4  1  0
  4  5  1  0
  5  6  1  0
  6  7  1  0
  7  8  1  0
  8  9  1  0
  9 10  1  0
 10 11  1  0
  6 12  2  0
 12 13  1  0
 13 14  1  0
 14  1  1  0
 13  4  2  0
 11  7  1  0
  1 15  1  0
  1 16  1  0
  2 17  1  0
  2 18  1  0
  3 19  1  0
  3 20  1  0
  5 21  1  0
  7 22  1  0
  8 23  1  0
  8 24  1  0
  9 25  1  0
  9 26  1  0
 10 27  1  0
 10 28  1  0
 11 29  1  0
 14 30  1  0
 14 31  1  0
M  END
>  <Energy>  (1246) 
19.613925501352142

>  <compound_id>  (1246) 
46367

>  <target_id>  (1246) 
1

>  <reference_id>  (1246) 
3

>  <inspiration_ids>  (1246) 
[3, 115]

>  <energy_score>  (1246) 
-16.906664331556016

>  <distance_score>  (1246) 
3.1166216086780745

>  <path>  (1246) 
/opt/xchem-fragalysis-2/maxwin/BulkDock/SCRATCH/511020/C46367-P3/C46367-P3.minimised.mol

>  <scratch_subdir>  (1246) 
/opt/xchem-fragalysis-2/maxwin/BulkDock/SCRATCH/511020/C46367-P3

>  <fragmenstein_runtime>  (1246) 
10.0831778049469

>  <fragmenstein_outcome>  (1246) 
too moved

>  <fragmenstein_mode>  (1246) 
expansion

>  <fragmenstein_error>  (1246) 


$$$$
C46367-P115
     RDKit          3D

 31 33  0  0  0  0  0  0  0  0999 V2000
  -10.1302  -24.1318   33.4957 C   0  0  0  0  0  0  0  0  0  0  0  0
   -9.8647  -25.6482   33.4738 C   0  0  0  0  0  0  0  0  0  0  0  0
   -9.3853  -26.1636   32.1075 C   0  0  0  0  0  0  0  0  0  0  0  0
  -10.1732  -25.5201   31.0388 C   0  0  0  0  0  0  0  0  0  0  0  0
  -10.1595  -25.7663   29.7021 N   0  0  0  0  0  0  0  0  0  0  0  0
  -10.9081  -24.7721   29.1023 C   0  0  0  0  0  0  0  0  0  0  0  0
  -11.0111  -24.6752   27.6294 C   0  0  0  0  0  0  0  0  0  0  0  0
  -11.8978  -25.7700   27.0815 C   0  0  0  0  0  0  0  0  0  0  0  0
  -12.1763  -25.2631   25.6980 C   0  0  0  0  0  0  0  0  0  0  0  0
  -12.3013  -23.7675   25.8837 C   0  0  0  0  0  0  0  0  0  0  0  0
  -11.5973  -23.4302   27.1296 N   0  0  0  0  0  0  0  0  0  0  0  0
  -11.4714  -23.9900   29.9986 N   0  0  0  0  0  0  0  0  0  0  0  0
  -10.9838  -24.4246   31.1887 C   0  0  0  0  0  0  0  0  0  0  0  0
  -11.1870  -23.7166   32.4608 C   0  0  0  0  0  0  0  0  0  0  0  0
   -9.2008  -23.5958   33.2839 H   0  0  0  0  0  0  0  0  0  0  0  0
  -10.4526  -23.8220   34.4964 H   0  0  0  0  0  0  0  0  0  0  0  0
   -9.1264  -25.9123   34.2363 H   0  0  0  0  0  0  0  0  0  0  0  0
  -10.7899  -26.1582   33.7418 H   0  0  0  0  0  0  0  0  0  0  0  0
   -9.4540  -27.2547   32.0612 H   0  0  0  0  0  0  0  0  0  0  0  0
   -8.3391  -25.8774   31.9902 H   0  0  0  0  0  0  0  0  0  0  0  0
   -9.6343  -26.4840   29.2216 H   0  0  0  0  0  0  0  0  0  0  0  0
  -10.0057  -24.7530   27.2076 H   0  0  0  0  0  0  0  0  0  0  0  0
  -11.3982  -26.7437   27.0675 H   0  0  0  0  0  0  0  0  0  0  0  0
  -12.8297  -25.8791   27.6504 H   0  0  0  0  0  0  0  0  0  0  0  0
  -13.0739  -25.7177   25.2690 H   0  0  0  0  0  0  0  0  0  0  0  0
  -11.3194  -25.4993   25.0595 H   0  0  0  0  0  0  0  0  0  0  0  0
  -13.3643  -23.5405   25.9515 H   0  0  0  0  0  0  0  0  0  0  0  0
  -11.9073  -23.2278   25.0213 H   0  0  0  0  0  0  0  0  0  0  0  0
  -12.3057  -23.1458   27.8210 H   0  0  0  0  0  0  0  0  0  0  0  0
  -11.1459  -22.6320   32.3103 H   0  0  0  0  0  0  0  0  0  0  0  0
  -12.1673  -23.9425   32.8736 H   0  0  0  0  0  0  0  0  0  0  0  0
  1  2  1  0
  2  3  1  0
  3  4  1  0
  4  5  1  0
  5  6  1  0
  6  7  1  0
  7  8  1  0
  8  9  1  0
  9 10  1  0
 10 11  1  0
  6 12  2  0
 12 13  1  0
 13 14  1  0
 14  1  1  0
 13  4  2  0
 11  7  1  0
  1 15  1  0
  1 16  1  0
  2 17  1  0
  2 18  1  0
  3 19  1  0
  3 20  1  0
  5 21  1  0
  7 22  1  0
  8 23  1  0
  8 24  1  0
  9 25  1  0
  9 26  1  0
 10 27  1  0
 10 28  1  0
 11 29  1  0
 14 30  1  0
 14 31  1  0
M  END
>  <Energy>  (1247) 
16.388134694947805

>  <compound_id>  (1247) 
46367

>  <target_id>  (1247) 
1

>  <reference_id>  (1247) 
115

>  <inspiration_ids>  (1247) 
[3, 115]

>  <energy_score>  (1247) 
-20.132455137960562

>  <distance_score>  (1247) 
2.8518654035684072

>  <path>  (1247) 
/opt/xchem-fragalysis-2/maxwin/BulkDock/SCRATCH/511020/C46367-P115/C46367-P115.minimised.mol

>  <scratch_subdir>  (1247) 
/opt/xchem-fragalysis-2/maxwin/BulkDock/SCRATCH/511020/C46367-P115

>  <fragmenstein_runtime>  (1247) 
8.630012512207031

>  <fragmenstein_outcome>  (1247) 
too moved

>  <fragmenstein_mode>  (1247) 
expansion

>  <fragmenstein_error>  (1247) 


$$$$
C46368-P3
     RDKit          3D

 29 32  0  0  0  0  0  0  0  0999 V2000
  -12.2854  -22.2399   25.3940 C   0  0  0  0  0  0  0  0  0  0  0  0
  -11.1125  -22.9488   26.0570 C   0  0  0  0  0  0  0  0  0  0  0  0
  -11.0644  -22.4207   27.4971 C   0  0  0  0  0  0  0  0  0  0  0  0
  -11.4923  -23.4465   28.5106 C   0  0  0  0  0  0  0  0  0  0  0  0
  -11.1204  -23.5282   29.7891 N   0  0  0  0  0  0  0  0  0  0  0  0
  -11.4615  -24.7828   30.1383 C   0  0  0  0  0  0  0  0  0  0  0  0
  -12.0421  -25.4647   29.1176 C   0  0  0  0  0  0  0  0  0  0  0  0
  -12.2287  -24.5619   28.1406 N   0  0  0  0  0  0  0  0  0  0  0  0
  -12.4053  -26.8658   29.3520 C   0  0  0  0  0  0  0  0  0  0  0  0
  -12.0078  -27.0301   30.8285 C   0  0  0  0  0  0  0  0  0  0  0  0
  -12.7248  -26.3015   31.9179 C   0  0  0  0  0  0  0  0  0  0  0  0
  -11.4621  -25.6775   31.3806 C   0  0  0  0  0  0  0  0  0  0  0  0
  -11.9430  -21.1910   27.4470 C   0  0  0  0  0  0  0  0  0  0  0  0
  -12.9754  -21.5312   26.4638 N   0  0  0  0  0  0  0  0  0  0  0  0
  -11.9282  -21.5375   24.6322 H   0  0  0  0  0  0  0  0  0  0  0  0
  -12.9757  -22.9359   24.9119 H   0  0  0  0  0  0  0  0  0  0  0  0
  -11.1894  -24.0354   25.9790 H   0  0  0  0  0  0  0  0  0  0  0  0
  -10.1949  -22.7003   25.5194 H   0  0  0  0  0  0  0  0  0  0  0  0
  -10.0511  -22.1104   27.7589 H   0  0  0  0  0  0  0  0  0  0  0  0
  -12.6902  -24.6970   27.2516 H   0  0  0  0  0  0  0  0  0  0  0  0
  -13.4732  -27.0547   29.2134 H   0  0  0  0  0  0  0  0  0  0  0  0
  -11.8197  -27.5431   28.7238 H   0  0  0  0  0  0  0  0  0  0  0  0
  -11.5575  -27.9804   31.0625 H   0  0  0  0  0  0  0  0  0  0  0  0
  -13.6870  -25.8613   31.6823 H   0  0  0  0  0  0  0  0  0  0  0  0
  -12.6875  -26.7525   32.9043 H   0  0  0  0  0  0  0  0  0  0  0  0
  -10.6495  -25.5585   32.0771 H   0  0  0  0  0  0  0  0  0  0  0  0
  -11.3856  -20.3204   27.0945 H   0  0  0  0  0  0  0  0  0  0  0  0
  -12.3328  -20.9248   28.4249 H   0  0  0  0  0  0  0  0  0  0  0  0
  -13.3877  -20.6765   26.0789 H   0  0  0  0  0  0  0  0  0  0  0  0
  1  2  1  0
  2  3  1  0
  3  4  1  0
  4  5  2  0
  5  6  1  0
  6  7  2  0
  7  8  1  0
  7  9  1  0
  9 10  1  0
 10 11  1  0
 11 12  1  0
  3 13  1  0
 13 14  1  0
 14  1  1  0
  8  4  1  0
 12 10  1  0
 12  6  1  0
  1 15  1  0
  1 16  1  0
  2 17  1  0
  2 18  1  0
  3 19  1  0
  8 20  1  0
  9 21  1  0
  9 22  1  0
 10 23  1  0
 11 24  1  0
 11 25  1  0
 12 26  1  0
 13 27  1  0
 13 28  1  0
 14 29  1  0
M  END
>  <Energy>  (1248) 
53.191457851248586

>  <compound_id>  (1248) 
46368

>  <target_id>  (1248) 
1

>  <reference_id>  (1248) 
3

>  <inspiration_ids>  (1248) 
[3, 115]

>  <energy_score>  (1248) 
-12.478524629967183

>  <distance_score>  (1248) 
1.8783405597635052

>  <path>  (1248) 
/opt/xchem-fragalysis-2/maxwin/BulkDock/SCRATCH/511020/C46368-P3/C46368-P3.minimised.mol

>  <scratch_subdir>  (1248) 
/opt/xchem-fragalysis-2/maxwin/BulkDock/SCRATCH/511020/C46368-P3

>  <fragmenstein_runtime>  (1248) 
13.713233709335327

>  <fragmenstein_outcome>  (1248) 
too moved

>  <fragmenstein_mode>  (1248) 
expansion

>  <fragmenstein_error>  (1248) 


$$$$
C46368-P115
     RDKit          3D

 29 32  0  0  0  0  0  0  0  0999 V2000
  -12.0562  -24.5706   25.6055 C   0  0  0  0  0  0  0  0  0  0  0  0
  -11.5527  -25.2918   26.8114 C   0  0  0  0  0  0  0  0  0  0  0  0
  -10.7542  -24.2107   27.5244 C   0  0  0  0  0  0  0  0  0  0  0  0
  -10.6317  -24.5195   28.9364 C   0  0  0  0  0  0  0  0  0  0  0  0
   -9.5308  -24.7112   29.6365 N   0  0  0  0  0  0  0  0  0  0  0  0
   -9.9845  -25.0371   30.8803 C   0  0  0  0  0  0  0  0  0  0  0  0
  -11.1597  -25.6792   30.6037 C   0  0  0  0  0  0  0  0  0  0  0  0
  -11.7288  -24.9044   29.6616 N   0  0  0  0  0  0  0  0  0  0  0  0
  -10.9008  -27.1271   30.6208 C   0  0  0  0  0  0  0  0  0  0  0  0
   -9.8429  -27.2527   31.7452 C   0  0  0  0  0  0  0  0  0  0  0  0
   -9.9124  -26.4986   33.0661 C   0  0  0  0  0  0  0  0  0  0  0  0
   -9.2001  -25.8797   31.9095 C   0  0  0  0  0  0  0  0  0  0  0  0
  -11.5276  -22.9516   27.2603 C   0  0  0  0  0  0  0  0  0  0  0  0
  -12.0170  -23.1687   25.9109 N   0  0  0  0  0  0  0  0  0  0  0  0
  -11.3262  -24.7583   24.8196 H   0  0  0  0  0  0  0  0  0  0  0  0
  -13.0504  -24.9180   25.3121 H   0  0  0  0  0  0  0  0  0  0  0  0
  -12.4115  -25.6700   27.3757 H   0  0  0  0  0  0  0  0  0  0  0  0
  -10.9360  -26.1613   26.5590 H   0  0  0  0  0  0  0  0  0  0  0  0
   -9.7604  -24.1445   27.0776 H   0  0  0  0  0  0  0  0  0  0  0  0
  -12.6612  -24.9569   29.2746 H   0  0  0  0  0  0  0  0  0  0  0  0
  -11.7796  -27.7616   30.6324 H   0  0  0  0  0  0  0  0  0  0  0  0
  -10.4019  -27.3526   29.6745 H   0  0  0  0  0  0  0  0  0  0  0  0
   -9.1893  -28.1046   31.6678 H   0  0  0  0  0  0  0  0  0  0  0  0
   -9.3089  -26.8675   33.8873 H   0  0  0  0  0  0  0  0  0  0  0  0
  -10.8333  -26.0239   33.3839 H   0  0  0  0  0  0  0  0  0  0  0  0
   -8.1387  -25.7477   31.9785 H   0  0  0  0  0  0  0  0  0  0  0  0
  -10.9435  -22.0458   27.3750 H   0  0  0  0  0  0  0  0  0  0  0  0
  -12.3142  -22.7779   27.9763 H   0  0  0  0  0  0  0  0  0  0  0  0
  -12.8749  -22.6412   25.7312 H   0  0  0  0  0  0  0  0  0  0  0  0
  1  2  1  0
  2  3  1  0
  3  4  1  0
  4  5  2  0
  5  6  1  0
  6  7  2  0
  7  8  1  0
  7  9  1  0
  9 10  1  0
 10 11  1  0
 11 12  1  0
  3 13  1  0
 13 14  1  0
 14  1  1  0
  8  4  1  0
 12 10  1  0
 12  6  1  0
  1 15  1  0
  1 16  1  0
  2 17  1  0
  2 18  1  0
  3 19  1  0
  8 20  1  0
  9 21  1  0
  9 22  1  0
 10 23  1  0
 11 24  1  0
 11 25  1  0
 12 26  1  0
 13 27  1  0
 13 28  1  0
 14 29  1  0
M  END
>  <Energy>  (1249) 
100.14631981709744

>  <compound_id>  (1249) 
46368

>  <target_id>  (1249) 
1

>  <reference_id>  (1249) 
115

>  <inspiration_ids>  (1249) 
[3, 115]

>  <energy_score>  (1249) 
34.476337335881794

>  <distance_score>  (1249) 
1.841388908482576

>  <path>  (1249) 
/opt/xchem-fragalysis-2/maxwin/BulkDock/SCRATCH/511020/C46368-P115/C46368-P115.minimised.mol

>  <scratch_subdir>  (1249) 
/opt/xchem-fragalysis-2/maxwin/BulkDock/SCRATCH/511020/C46368-P115

>  <fragmenstein_runtime>  (1249) 
13.873549938201904

>  <fragmenstein_outcome>  (1249) 
too moved

>  <fragmenstein_mode>  (1249) 
expansion

>  <fragmenstein_error>  (1249) 


$$$$
C10130-P3
     RDKit          3D

 21 22  0  0  0  0  0  0  0  0999 V2000
  -11.8715  -26.3101   30.6963 C   0  0  0  0  0  0  0  0  0  0  0  0
  -11.3352  -25.3203   31.3642 N   0  0  0  0  0  0  0  0  0  0  0  0
  -11.1185  -24.3344   30.4393 C   0  0  0  0  0  0  0  0  0  0  0  0
  -11.6387  -24.6860   29.2084 C   0  0  0  0  0  0  0  0  0  0  0  0
  -11.7472  -23.9474   27.9174 C   0  0  0  0  0  0  0  0  0  0  0  0
  -13.0910  -24.0517   27.2065 C   0  0  0  0  0  0  0  0  0  0  0  0
  -13.1725  -22.7886   26.3563 C   0  0  0  0  0  0  0  0  0  0  0  0
  -12.0467  -21.9054   26.8594 C   0  0  0  0  0  0  0  0  0  0  0  0
  -11.6354  -22.5053   28.1276 N   0  0  0  0  0  0  0  0  0  0  0  0
  -12.0182  -25.9967   29.3769 N   0  0  0  0  0  0  0  0  0  0  0  0
  -12.1676  -27.2681   31.1034 H   0  0  0  0  0  0  0  0  0  0  0  0
  -10.6545  -23.3961   30.7218 H   0  0  0  0  0  0  0  0  0  0  0  0
  -10.9758  -24.2899   27.2229 H   0  0  0  0  0  0  0  0  0  0  0  0
  -13.1613  -24.9555   26.5915 H   0  0  0  0  0  0  0  0  0  0  0  0
  -13.9262  -24.0756   27.9180 H   0  0  0  0  0  0  0  0  0  0  0  0
  -13.0425  -23.0149   25.2935 H   0  0  0  0  0  0  0  0  0  0  0  0
  -14.1525  -22.3230   26.4713 H   0  0  0  0  0  0  0  0  0  0  0  0
  -12.3485  -20.8615   26.9771 H   0  0  0  0  0  0  0  0  0  0  0  0
  -11.2204  -21.9568   26.1467 H   0  0  0  0  0  0  0  0  0  0  0  0
  -10.6664  -22.2517   28.3197 H   0  0  0  0  0  0  0  0  0  0  0  0
  -12.4259  -26.5967   28.6726 H   0  0  0  0  0  0  0  0  0  0  0  0
  1  2  2  0
  2  3  1  0
  3  4  2  0
  4  5  1  0
  5  6  1  0
  6  7  1  0
  7  8  1  0
  8  9  1  0
  4 10  1  0
 10  1  1  0
  9  5  1  0
  1 11  1  0
  3 12  1  0
  5 13  1  0
  6 14  1  0
  6 15  1  0
  7 16  1  0
  7 17  1  0
  8 18  1  0
  8 19  1  0
  9 20  1  0
 10 21  1  0
M  END
>  <Energy>  (1250) 
-12.175638924936052

>  <compound_id>  (1250) 
10130

>  <target_id>  (1250) 
1

>  <reference_id>  (1250) 
3

>  <inspiration_ids>  (1250) 
[3, 115]

>  <energy_score>  (1250) 
-9.627036328190371

>  <distance_score>  (1250) 
1.7650446618794147

>  <path>  (1250) 
/opt/xchem-fragalysis-2/maxwin/BulkDock/SCRATCH/511020/C10130-P3/C10130-P3.minimised.mol

>  <scratch_subdir>  (1250) 
/opt/xchem-fragalysis-2/maxwin/BulkDock/SCRATCH/511020/C10130-P3

>  <fragmenstein_runtime>  (1250) 
1.691584825515747

>  <fragmenstein_outcome>  (1250) 
too moved

>  <fragmenstein_mode>  (1250) 
expansion

>  <fragmenstein_error>  (1250) 


$$$$
C10130-P115
     RDKit          3D

 21 22  0  0  0  0  0  0  0  0999 V2000
   -9.7995  -25.9348   32.3237 C   0  0  0  0  0  0  0  0  0  0  0  0
  -10.4528  -24.8008   32.3869 N   0  0  0  0  0  0  0  0  0  0  0  0
  -11.0289  -24.6410   31.1553 C   0  0  0  0  0  0  0  0  0  0  0  0
  -10.6908  -25.6735   30.3077 C   0  0  0  0  0  0  0  0  0  0  0  0
  -10.9046  -25.9449   28.8616 C   0  0  0  0  0  0  0  0  0  0  0  0
  -12.1050  -25.3275   28.1889 C   0  0  0  0  0  0  0  0  0  0  0  0
  -11.6608  -23.9226   27.8119 C   0  0  0  0  0  0  0  0  0  0  0  0
  -10.1997  -24.0959   27.5686 C   0  0  0  0  0  0  0  0  0  0  0  0
   -9.8033  -25.3882   28.1112 N   0  0  0  0  0  0  0  0  0  0  0  0
   -9.9395  -26.5165   31.0988 N   0  0  0  0  0  0  0  0  0  0  0  0
   -9.2196  -26.3805   33.1213 H   0  0  0  0  0  0  0  0  0  0  0  0
  -11.6192  -23.7619   30.9359 H   0  0  0  0  0  0  0  0  0  0  0  0
  -10.9495  -27.0280   28.7195 H   0  0  0  0  0  0  0  0  0  0  0  0
  -12.9743  -25.3972   28.8414 H   0  0  0  0  0  0  0  0  0  0  0  0
  -12.3446  -25.8784   27.2689 H   0  0  0  0  0  0  0  0  0  0  0  0
  -12.1746  -23.5432   26.9237 H   0  0  0  0  0  0  0  0  0  0  0  0
  -11.8001  -23.2168   28.6376 H   0  0  0  0  0  0  0  0  0  0  0  0
   -9.6197  -23.2967   28.0241 H   0  0  0  0  0  0  0  0  0  0  0  0
  -10.0274  -24.1252   26.4967 H   0  0  0  0  0  0  0  0  0  0  0  0
   -8.9901  -25.2900   28.7134 H   0  0  0  0  0  0  0  0  0  0  0  0
   -9.5172  -27.3904   30.8142 H   0  0  0  0  0  0  0  0  0  0  0  0
  1  2  2  0
  2  3  1  0
  3  4  2  0
  4  5  1  0
  5  6  1  0
  6  7  1  0
  7  8  1  0
  8  9  1  0
  4 10  1  0
 10  1  1  0
  9  5  1  0
  1 11  1  0
  3 12  1  0
  5 13  1  0
  6 14  1  0
  6 15  1  0
  7 16  1  0
  7 17  1  0
  8 18  1  0
  8 19  1  0
  9 20  1  0
 10 21  1  0
M  END
>  <Energy>  (1251) 
-11.793144482135444

>  <compound_id>  (1251) 
10130

>  <target_id>  (1251) 
1

>  <reference_id>  (1251) 
115

>  <inspiration_ids>  (1251) 
[3, 115]

>  <energy_score>  (1251) 
-9.24454188538975

>  <distance_score>  (1251) 
2.2598775193484837

>  <path>  (1251) 
/opt/xchem-fragalysis-2/maxwin/BulkDock/SCRATCH/511020/C10130-P115/C10130-P115.minimised.mol

>  <scratch_subdir>  (1251) 
/opt/xchem-fragalysis-2/maxwin/BulkDock/SCRATCH/511020/C10130-P115

>  <fragmenstein_runtime>  (1251) 
1.2269246578216553

>  <fragmenstein_outcome>  (1251) 
too moved

>  <fragmenstein_mode>  (1251) 
expansion

>  <fragmenstein_error>  (1251) 


$$$$
C46369-P3
     RDKit          3D

 28 30  0  0  0  0  0  0  0  0999 V2000
  -10.9984  -20.3164   31.1470 C   0  0  0  0  0  0  0  0  0  0  0  0
  -11.0842  -20.8159   29.6650 C   0  0  0  0  0  0  0  0  0  0  0  0
  -10.8680  -22.2468   29.8723 C   0  0  0  0  0  0  0  0  0  0  0  0
  -11.4164  -23.3222   29.2970 N   0  0  0  0  0  0  0  0  0  0  0  0
  -11.2302  -24.3002   30.1733 C   0  0  0  0  0  0  0  0  0  0  0  0
  -12.0502  -25.5386   30.1206 C   0  0  0  0  0  0  0  0  0  0  0  0
  -11.7430  -26.4164   28.9180 C   0  0  0  0  0  0  0  0  0  0  0  0
  -12.0862  -27.7983   29.4164 C   0  0  0  0  0  0  0  0  0  0  0  0
  -11.7532  -27.7723   30.8351 N   0  0  0  0  0  0  0  0  0  0  0  0
  -12.0922  -26.4466   31.3371 C   0  0  0  0  0  0  0  0  0  0  0  0
  -10.4002  -23.8902   31.2169 N   0  0  0  0  0  0  0  0  0  0  0  0
  -10.3727  -22.5467   31.0980 C   0  0  0  0  0  0  0  0  0  0  0  0
  -10.2091  -21.4041   31.9829 C   0  0  0  0  0  0  0  0  0  0  0  0
  -10.5564  -19.3192   31.2342 H   0  0  0  0  0  0  0  0  0  0  0  0
  -12.0123  -20.2333   31.5530 H   0  0  0  0  0  0  0  0  0  0  0  0
  -10.3171  -20.3854   29.0196 H   0  0  0  0  0  0  0  0  0  0  0  0
  -12.0404  -20.5888   29.2068 H   0  0  0  0  0  0  0  0  0  0  0  0
  -13.0861  -25.1933   29.9733 H   0  0  0  0  0  0  0  0  0  0  0  0
  -10.7029  -26.3621   28.6075 H   0  0  0  0  0  0  0  0  0  0  0  0
  -12.3477  -26.1407   28.0466 H   0  0  0  0  0  0  0  0  0  0  0  0
  -11.5262  -28.5767   28.8916 H   0  0  0  0  0  0  0  0  0  0  0  0
  -13.1564  -27.9979   29.2863 H   0  0  0  0  0  0  0  0  0  0  0  0
  -12.2465  -28.5076   31.3381 H   0  0  0  0  0  0  0  0  0  0  0  0
  -13.1142  -26.4692   31.7370 H   0  0  0  0  0  0  0  0  0  0  0  0
  -11.4481  -26.1494   32.1658 H   0  0  0  0  0  0  0  0  0  0  0  0
  -10.0864  -24.4428   32.0067 H   0  0  0  0  0  0  0  0  0  0  0  0
   -9.1592  -21.1363   32.1143 H   0  0  0  0  0  0  0  0  0  0  0  0
  -10.6653  -21.5396   32.9667 H   0  0  0  0  0  0  0  0  0  0  0  0
  1  2  1  0
  2  3  1  0
  3  4  1  0
  4  5  2  0
  5  6  1  0
  6  7  1  0
  7  8  1  0
  8  9  1  0
  9 10  1  0
  5 11  1  0
 11 12  1  0
 12 13  1  0
 13  1  1  0
 12  3  2  0
 10  6  1  0
  1 14  1  0
  1 15  1  0
  2 16  1  0
  2 17  1  0
  6 18  1  0
  7 19  1  0
  7 20  1  0
  8 21  1  0
  8 22  1  0
  9 23  1  0
 10 24  1  0
 10 25  1  0
 11 26  1  0
 13 27  1  0
 13 28  1  0
M  END
>  <Energy>  (1252) 
48.644876240752758

>  <compound_id>  (1252) 
46369

>  <target_id>  (1252) 
1

>  <reference_id>  (1252) 
3

>  <inspiration_ids>  (1252) 
[3, 115]

>  <energy_score>  (1252) 
-8.60847783892845

>  <distance_score>  (1252) 
3.18355652318819

>  <path>  (1252) 
/opt/xchem-fragalysis-2/maxwin/BulkDock/SCRATCH/511020/C46369-P3/C46369-P3.minimised.mol

>  <scratch_subdir>  (1252) 
/opt/xchem-fragalysis-2/maxwin/BulkDock/SCRATCH/511020/C46369-P3

>  <fragmenstein_runtime>  (1252) 
4.451553821563721

>  <fragmenstein_outcome>  (1252) 
too moved

>  <fragmenstein_mode>  (1252) 
expansion

>  <fragmenstein_error>  (1252) 


$$$$
C46369-P115
     RDKit          3D

 28 30  0  0  0  0  0  0  0  0999 V2000
  -11.6381  -22.5287   29.3151 C   0  0  0  0  0  0  0  0  0  0  0  0
  -11.0811  -21.3895   30.1012 C   0  0  0  0  0  0  0  0  0  0  0  0
  -11.1209  -21.7967   31.5441 C   0  0  0  0  0  0  0  0  0  0  0  0
  -10.1937  -22.4847   32.3069 N   0  0  0  0  0  0  0  0  0  0  0  0
  -10.8339  -23.5499   32.7788 C   0  0  0  0  0  0  0  0  0  0  0  0
  -10.5571  -25.0253   32.6378 C   0  0  0  0  0  0  0  0  0  0  0  0
  -10.8347  -25.5135   31.2090 C   0  0  0  0  0  0  0  0  0  0  0  0
  -10.0019  -26.7444   31.0109 C   0  0  0  0  0  0  0  0  0  0  0  0
   -9.1228  -26.8323   32.1676 N   0  0  0  0  0  0  0  0  0  0  0  0
   -9.1473  -25.5104   32.8179 C   0  0  0  0  0  0  0  0  0  0  0  0
  -12.1521  -23.1610   32.8636 N   0  0  0  0  0  0  0  0  0  0  0  0
  -12.2586  -22.5130   31.6654 C   0  0  0  0  0  0  0  0  0  0  0  0
  -12.6918  -22.9626   30.3110 C   0  0  0  0  0  0  0  0  0  0  0  0
  -12.0476  -22.2158   28.3514 H   0  0  0  0  0  0  0  0  0  0  0  0
  -10.9171  -23.3172   29.0980 H   0  0  0  0  0  0  0  0  0  0  0  0
  -11.8550  -20.6758   29.8940 H   0  0  0  0  0  0  0  0  0  0  0  0
  -10.1993  -21.0192   29.6711 H   0  0  0  0  0  0  0  0  0  0  0  0
  -11.2082  -25.5700   33.3333 H   0  0  0  0  0  0  0  0  0  0  0  0
  -10.5117  -24.7768   30.4757 H   0  0  0  0  0  0  0  0  0  0  0  0
  -11.8826  -25.7461   31.0492 H   0  0  0  0  0  0  0  0  0  0  0  0
   -9.4711  -26.6586   30.0632 H   0  0  0  0  0  0  0  0  0  0  0  0
  -10.6194  -27.6383   30.9292 H   0  0  0  0  0  0  0  0  0  0  0  0
   -9.4745  -27.5304   32.8210 H   0  0  0  0  0  0  0  0  0  0  0  0
   -8.8873  -25.6052   33.8750 H   0  0  0  0  0  0  0  0  0  0  0  0
   -8.4311  -24.8554   32.3187 H   0  0  0  0  0  0  0  0  0  0  0  0
  -12.8432  -23.7865   33.2463 H   0  0  0  0  0  0  0  0  0  0  0  0
  -12.7265  -24.0323   30.1641 H   0  0  0  0  0  0  0  0  0  0  0  0
  -13.6298  -22.4434   30.1590 H   0  0  0  0  0  0  0  0  0  0  0  0
  1  2  1  0
  2  3  1  0
  3  4  1  0
  4  5  2  0
  5  6  1  0
  6  7  1  0
  7  8  1  0
  8  9  1  0
  9 10  1  0
  5 11  1  0
 11 12  1  0
 12 13  1  0
 13  1  1  0
 12  3  2  0
 10  6  1  0
  1 14  1  0
  1 15  1  0
  2 16  1  0
  2 17  1  0
  6 18  1  0
  7 19  1  0
  7 20  1  0
  8 21  1  0
  8 22  1  0
  9 23  1  0
 10 24  1  0
 10 25  1  0
 11 26  1  0
 13 27  1  0
 13 28  1  0
M  END
>  <Energy>  (1253) 
107.18599572093655

>  <compound_id>  (1253) 
46369

>  <target_id>  (1253) 
1

>  <reference_id>  (1253) 
115

>  <inspiration_ids>  (1253) 
[3, 115]

>  <energy_score>  (1253) 
49.93264164125583

>  <distance_score>  (1253) 
1.9402253300677306

>  <path>  (1253) 
/opt/xchem-fragalysis-2/maxwin/BulkDock/SCRATCH/511020/C46369-P115/C46369-P115.minimised.mol

>  <scratch_subdir>  (1253) 
/opt/xchem-fragalysis-2/maxwin/BulkDock/SCRATCH/511020/C46369-P115

>  <fragmenstein_runtime>  (1253) 
3.2893388271331787

>  <fragmenstein_outcome>  (1253) 
too moved

>  <fragmenstein_mode>  (1253) 
expansion

>  <fragmenstein_error>  (1253) 


$$$$
C46370-P3
     RDKit          3D

 28 30  0  0  0  0  0  0  0  0999 V2000
  -11.0846  -19.4981   29.8678 C   0  0  0  0  0  0  0  0  0  0  0  0
  -10.6816  -18.8666   31.2577 C   0  0  0  0  0  0  0  0  0  0  0  0
  -10.4878  -20.0325   32.1054 C   0  0  0  0  0  0  0  0  0  0  0  0
   -9.3895  -20.5293   32.7752 N   0  0  0  0  0  0  0  0  0  0  0  0
   -9.6302  -21.8348   32.8144 C   0  0  0  0  0  0  0  0  0  0  0  0
   -8.7380  -23.0002   32.5473 C   0  0  0  0  0  0  0  0  0  0  0  0
   -9.4504  -24.3381   32.7082 C   0  0  0  0  0  0  0  0  0  0  0  0
  -10.2770  -24.5303   31.4553 C   0  0  0  0  0  0  0  0  0  0  0  0
   -9.3450  -23.9242   30.4794 C   0  0  0  0  0  0  0  0  0  0  0  0
   -8.4435  -22.9976   31.1177 N   0  0  0  0  0  0  0  0  0  0  0  0
  -10.9698  -21.9699   32.5493 N   0  0  0  0  0  0  0  0  0  0  0  0
  -11.1413  -21.0776   31.5465 C   0  0  0  0  0  0  0  0  0  0  0  0
  -11.2511  -21.0232   30.0896 C   0  0  0  0  0  0  0  0  0  0  0  0
  -10.3292  -19.3119   29.1020 H   0  0  0  0  0  0  0  0  0  0  0  0
  -11.9854  -19.0332   29.4724 H   0  0  0  0  0  0  0  0  0  0  0  0
   -9.8430  -18.1873   31.2287 H   0  0  0  0  0  0  0  0  0  0  0  0
  -11.5200  -18.3361   31.7071 H   0  0  0  0  0  0  0  0  0  0  0  0
   -7.8161  -22.8890   33.1179 H   0  0  0  0  0  0  0  0  0  0  0  0
  -10.0034  -24.4161   33.6306 H   0  0  0  0  0  0  0  0  0  0  0  0
   -8.6839  -25.1017   32.7376 H   0  0  0  0  0  0  0  0  0  0  0  0
  -10.5688  -25.5510   31.2312 H   0  0  0  0  0  0  0  0  0  0  0  0
  -11.2071  -23.9806   31.4210 H   0  0  0  0  0  0  0  0  0  0  0  0
   -8.6812  -24.7087   30.1734 H   0  0  0  0  0  0  0  0  0  0  0  0
   -9.8948  -23.4832   29.6509 H   0  0  0  0  0  0  0  0  0  0  0  0
   -8.5523  -22.0460   30.7820 H   0  0  0  0  0  0  0  0  0  0  0  0
  -11.5536  -21.8489   33.3602 H   0  0  0  0  0  0  0  0  0  0  0  0
  -12.1481  -21.4085   29.6436 H   0  0  0  0  0  0  0  0  0  0  0  0
  -10.4199  -21.5200   29.5905 H   0  0  0  0  0  0  0  0  0  0  0  0
  1  2  1  0
  2  3  1  0
  3  4  1  0
  4  5  2  0
  5  6  1  0
  6  7  1  0
  7  8  1  0
  8  9  1  0
  9 10  1  0
  5 11  1  0
 11 12  1  0
 12 13  1  0
 13  1  1  0
 12  3  2  0
 10  6  1  0
  1 14  1  0
  1 15  1  0
  2 16  1  0
  2 17  1  0
  6 18  1  0
  7 19  1  0
  7 20  1  0
  8 21  1  0
  8 22  1  0
  9 23  1  0
  9 24  1  0
 10 25  1  0
 11 26  1  0
 13 27  1  0
 13 28  1  0
M  END
>  <Energy>  (1254) 
107.26781677997897

>  <compound_id>  (1254) 
46370

>  <target_id>  (1254) 
1

>  <reference_id>  (1254) 
3

>  <inspiration_ids>  (1254) 
[3, 115]

>  <energy_score>  (1254) 
38.53813023656721

>  <distance_score>  (1254) 
2.7505171708850673

>  <path>  (1254) 
/opt/xchem-fragalysis-2/maxwin/BulkDock/SCRATCH/511020/C46370-P3/C46370-P3.minimised.mol

>  <scratch_subdir>  (1254) 
/opt/xchem-fragalysis-2/maxwin/BulkDock/SCRATCH/511020/C46370-P3

>  <fragmenstein_runtime>  (1254) 
4.105354309082031

>  <fragmenstein_outcome>  (1254) 
too moved

>  <fragmenstein_mode>  (1254) 
expansion

>  <fragmenstein_error>  (1254) 


$$$$
C46370-P115
     RDKit          3D

 28 30  0  0  0  0  0  0  0  0999 V2000
  -11.5810  -22.6151   29.2464 C   0  0  0  0  0  0  0  0  0  0  0  0
  -11.1319  -21.3635   29.9501 C   0  0  0  0  0  0  0  0  0  0  0  0
  -11.1770  -21.6812   31.4117 C   0  0  0  0  0  0  0  0  0  0  0  0
  -10.2148  -22.0349   32.3180 N   0  0  0  0  0  0  0  0  0  0  0  0
  -10.6442  -23.1965   32.8266 C   0  0  0  0  0  0  0  0  0  0  0  0
   -9.9271  -24.5182   33.0978 C   0  0  0  0  0  0  0  0  0  0  0  0
  -10.8247  -25.7345   32.9067 C   0  0  0  0  0  0  0  0  0  0  0  0
  -10.8293  -25.9618   31.4004 C   0  0  0  0  0  0  0  0  0  0  0  0
   -9.3891  -25.7803   31.1109 C   0  0  0  0  0  0  0  0  0  0  0  0
   -8.8915  -24.8281   32.0933 N   0  0  0  0  0  0  0  0  0  0  0  0
  -12.0213  -23.1432   32.7714 N   0  0  0  0  0  0  0  0  0  0  0  0
  -12.1789  -22.5676   31.5561 C   0  0  0  0  0  0  0  0  0  0  0  0
  -12.6318  -23.0515   30.2437 C   0  0  0  0  0  0  0  0  0  0  0  0
  -10.8136  -23.3852   29.1400 H   0  0  0  0  0  0  0  0  0  0  0  0
  -11.9683  -22.4139   28.2444 H   0  0  0  0  0  0  0  0  0  0  0  0
  -10.2355  -20.9992   29.5397 H   0  0  0  0  0  0  0  0  0  0  0  0
  -11.9318  -20.6893   29.6704 H   0  0  0  0  0  0  0  0  0  0  0  0
   -9.5184  -24.4848   34.1123 H   0  0  0  0  0  0  0  0  0  0  0  0
  -11.8206  -25.6116   33.3143 H   0  0  0  0  0  0  0  0  0  0  0  0
  -10.3678  -26.5985   33.4098 H   0  0  0  0  0  0  0  0  0  0  0  0
  -11.1690  -26.9337   31.0494 H   0  0  0  0  0  0  0  0  0  0  0  0
  -11.4102  -25.2188   30.8837 H   0  0  0  0  0  0  0  0  0  0  0  0
   -8.9234  -26.7484   31.3099 H   0  0  0  0  0  0  0  0  0  0  0  0
   -9.2021  -25.4639   30.0823 H   0  0  0  0  0  0  0  0  0  0  0  0
   -8.0906  -25.2571   32.5520 H   0  0  0  0  0  0  0  0  0  0  0  0
  -12.6203  -23.8598   33.1511 H   0  0  0  0  0  0  0  0  0  0  0  0
  -13.5598  -22.5085   30.1010 H   0  0  0  0  0  0  0  0  0  0  0  0
  -12.7112  -24.1176   30.1014 H   0  0  0  0  0  0  0  0  0  0  0  0
  1  2  1  0
  2  3  1  0
  3  4  1  0
  4  5  2  0
  5  6  1  0
  6  7  1  0
  7  8  1  0
  8  9  1  0
  9 10  1  0
  5 11  1  0
 11 12  1  0
 12 13  1  0
 13  1  1  0
 12  3  2  0
 10  6  1  0
  1 14  1  0
  1 15  1  0
  2 16  1  0
  2 17  1  0
  6 18  1  0
  7 19  1  0
  7 20  1  0
  8 21  1  0
  8 22  1  0
  9 23  1  0
  9 24  1  0
 10 25  1  0
 11 26  1  0
 13 27  1  0
 13 28  1  0
M  END
>  <Energy>  (1255) 
95.44751526622008

>  <compound_id>  (1255) 
46370

>  <target_id>  (1255) 
1

>  <reference_id>  (1255) 
115

>  <inspiration_ids>  (1255) 
[3, 115]

>  <energy_score>  (1255) 
26.71782872280926

>  <distance_score>  (1255) 
2.0893422654809384

>  <path>  (1255) 
/opt/xchem-fragalysis-2/maxwin/BulkDock/SCRATCH/511020/C46370-P115/C46370-P115.minimised.mol

>  <scratch_subdir>  (1255) 
/opt/xchem-fragalysis-2/maxwin/BulkDock/SCRATCH/511020/C46370-P115

>  <fragmenstein_runtime>  (1255) 
3.1473100185394287

>  <fragmenstein_outcome>  (1255) 
too moved

>  <fragmenstein_mode>  (1255) 
expansion

>  <fragmenstein_error>  (1255) 


$$$$
C46371-P3
     RDKit          3D

 31 33  0  0  0  0  0  0  0  0999 V2000
  -12.0933  -27.2021   30.8181 C   0  0  0  0  0  0  0  0  0  0  0  0
  -11.7445  -25.9903   31.7298 C   0  0  0  0  0  0  0  0  0  0  0  0
  -10.8302  -24.8832   31.1433 C   0  0  0  0  0  0  0  0  0  0  0  0
  -11.2898  -24.6583   29.7783 C   0  0  0  0  0  0  0  0  0  0  0  0
  -11.4408  -23.4762   29.1205 N   0  0  0  0  0  0  0  0  0  0  0  0
  -12.1416  -23.7704   27.9745 C   0  0  0  0  0  0  0  0  0  0  0  0
  -12.8167  -22.7493   27.1433 C   0  0  0  0  0  0  0  0  0  0  0  0
  -13.1966  -23.2121   25.7486 C   0  0  0  0  0  0  0  0  0  0  0  0
  -12.5511  -22.1939   24.8323 C   0  0  0  0  0  0  0  0  0  0  0  0
  -12.5474  -20.9972   25.6644 N   0  0  0  0  0  0  0  0  0  0  0  0
  -12.0442  -21.4600   26.9496 C   0  0  0  0  0  0  0  0  0  0  0  0
  -12.2744  -25.0729   27.8207 N   0  0  0  0  0  0  0  0  0  0  0  0
  -11.7743  -25.6250   28.9453 C   0  0  0  0  0  0  0  0  0  0  0  0
  -11.8844  -27.0437   29.3007 C   0  0  0  0  0  0  0  0  0  0  0  0
  -11.5660  -28.0993   31.1576 H   0  0  0  0  0  0  0  0  0  0  0  0
  -13.1524  -27.4427   30.9901 H   0  0  0  0  0  0  0  0  0  0  0  0
  -12.7227  -25.5539   31.9470 H   0  0  0  0  0  0  0  0  0  0  0  0
  -11.3697  -26.3345   32.7000 H   0  0  0  0  0  0  0  0  0  0  0  0
   -9.7777  -25.1360   31.1405 H   0  0  0  0  0  0  0  0  0  0  0  0
  -10.8747  -23.9460   31.6966 H   0  0  0  0  0  0  0  0  0  0  0  0
  -11.1974  -22.5540   29.4602 H   0  0  0  0  0  0  0  0  0  0  0  0
  -13.7815  -22.5572   27.5945 H   0  0  0  0  0  0  0  0  0  0  0  0
  -12.9295  -24.2474   25.5542 H   0  0  0  0  0  0  0  0  0  0  0  0
  -14.2881  -23.1551   25.6289 H   0  0  0  0  0  0  0  0  0  0  0  0
  -11.5238  -22.4727   24.5736 H   0  0  0  0  0  0  0  0  0  0  0  0
  -13.1191  -22.0479   23.9112 H   0  0  0  0  0  0  0  0  0  0  0  0
  -11.9696  -20.2683   25.2533 H   0  0  0  0  0  0  0  0  0  0  0  0
  -12.2315  -20.7296   27.7410 H   0  0  0  0  0  0  0  0  0  0  0  0
  -10.9685  -21.6539   26.9196 H   0  0  0  0  0  0  0  0  0  0  0  0
  -10.9824  -27.5779   28.9888 H   0  0  0  0  0  0  0  0  0  0  0  0
  -12.7185  -27.5134   28.7666 H   0  0  0  0  0  0  0  0  0  0  0  0
  1  2  1  0
  2  3  1  0
  3  4  1  0
  4  5  1  0
  5  6  1  0
  6  7  1  0
  7  8  1  0
  8  9  1  0
  9 10  1  0
 10 11  1  0
  6 12  2  0
 12 13  1  0
 13 14  1  0
 14  1  1  0
 13  4  2  0
 11  7  1  0
  1 15  1  0
  1 16  1  0
  2 17  1  0
  2 18  1  0
  3 19  1  0
  3 20  1  0
  5 21  1  0
  7 22  1  0
  8 23  1  0
  8 24  1  0
  9 25  1  0
  9 26  1  0
 10 27  1  0
 11 28  1  0
 11 29  1  0
 14 30  1  0
 14 31  1  0
M  END
>  <Energy>  (1256) 
31.42217238860362

>  <compound_id>  (1256) 
46371

>  <target_id>  (1256) 
1

>  <reference_id>  (1256) 
3

>  <inspiration_ids>  (1256) 
[3, 115]

>  <energy_score>  (1256) 
-11.289952531092354

>  <distance_score>  (1256) 
1.9321313107263438

>  <path>  (1256) 
/opt/xchem-fragalysis-2/maxwin/BulkDock/SCRATCH/511020/C46371-P3/C46371-P3.minimised.mol

>  <scratch_subdir>  (1256) 
/opt/xchem-fragalysis-2/maxwin/BulkDock/SCRATCH/511020/C46371-P3

>  <fragmenstein_runtime>  (1256) 
8.438893795013428

>  <fragmenstein_outcome>  (1256) 
too moved

>  <fragmenstein_mode>  (1256) 
expansion

>  <fragmenstein_error>  (1256) 


$$$$
C46371-P115
     RDKit          3D

 31 33  0  0  0  0  0  0  0  0999 V2000
   -9.6438  -26.0668   33.3460 C   0  0  0  0  0  0  0  0  0  0  0  0
  -10.0194  -24.6079   33.6540 C   0  0  0  0  0  0  0  0  0  0  0  0
  -11.1750  -24.1191   32.7912 C   0  0  0  0  0  0  0  0  0  0  0  0
  -10.9741  -24.5759   31.4046 C   0  0  0  0  0  0  0  0  0  0  0  0
  -11.5903  -24.1265   30.2852 N   0  0  0  0  0  0  0  0  0  0  0  0
  -11.1432  -24.9097   29.2527 C   0  0  0  0  0  0  0  0  0  0  0  0
  -11.7922  -24.8557   27.9436 C   0  0  0  0  0  0  0  0  0  0  0  0
  -11.2758  -25.8103   26.9057 C   0  0  0  0  0  0  0  0  0  0  0  0
  -11.6854  -25.1388   25.6053 C   0  0  0  0  0  0  0  0  0  0  0  0
  -12.2257  -23.8310   25.9568 N   0  0  0  0  0  0  0  0  0  0  0  0
  -11.6373  -23.5202   27.2513 C   0  0  0  0  0  0  0  0  0  0  0  0
  -10.2061  -25.7427   29.6414 N   0  0  0  0  0  0  0  0  0  0  0  0
  -10.1311  -25.5648   30.9814 C   0  0  0  0  0  0  0  0  0  0  0  0
   -9.2310  -26.2803   31.8850 C   0  0  0  0  0  0  0  0  0  0  0  0
   -8.8217  -26.3817   33.9982 H   0  0  0  0  0  0  0  0  0  0  0  0
  -10.4900  -26.7104   33.5865 H   0  0  0  0  0  0  0  0  0  0  0  0
  -10.2747  -24.4997   34.7139 H   0  0  0  0  0  0  0  0  0  0  0  0
   -9.1687  -23.9516   33.4608 H   0  0  0  0  0  0  0  0  0  0  0  0
  -12.0903  -24.5384   33.2021 H   0  0  0  0  0  0  0  0  0  0  0  0
  -11.2544  -23.0280   32.8436 H   0  0  0  0  0  0  0  0  0  0  0  0
  -12.3257  -23.4374   30.2158 H   0  0  0  0  0  0  0  0  0  0  0  0
  -12.8238  -25.1829   28.0889 H   0  0  0  0  0  0  0  0  0  0  0  0
  -10.1967  -25.9337   26.9877 H   0  0  0  0  0  0  0  0  0  0  0  0
  -11.7190  -26.8039   27.0171 H   0  0  0  0  0  0  0  0  0  0  0  0
  -10.8233  -25.0288   24.9483 H   0  0  0  0  0  0  0  0  0  0  0  0
  -12.4478  -25.7445   25.1085 H   0  0  0  0  0  0  0  0  0  0  0  0
  -12.0329  -23.1055   25.2694 H   0  0  0  0  0  0  0  0  0  0  0  0
  -12.1070  -22.6740   27.7537 H   0  0  0  0  0  0  0  0  0  0  0  0
  -10.5765  -23.2922   27.1739 H   0  0  0  0  0  0  0  0  0  0  0  0
   -8.2403  -25.8426   31.7751 H   0  0  0  0  0  0  0  0  0  0  0  0
   -9.1856  -27.3486   31.6570 H   0  0  0  0  0  0  0  0  0  0  0  0
  1  2  1  0
  2  3  1  0
  3  4  1  0
  4  5  1  0
  5  6  1  0
  6  7  1  0
  7  8  1  0
  8  9  1  0
  9 10  1  0
 10 11  1  0
  6 12  2  0
 12 13  1  0
 13 14  1  0
 14  1  1  0
 13  4  2  0
 11  7  1  0
  1 15  1  0
  1 16  1  0
  2 17  1  0
  2 18  1  0
  3 19  1  0
  3 20  1  0
  5 21  1  0
  7 22  1  0
  8 23  1  0
  8 24  1  0
  9 25  1  0
  9 26  1  0
 10 27  1  0
 11 28  1  0
 11 29  1  0
 14 30  1  0
 14 31  1  0
M  END
>  <Energy>  (1257) 
22.999245831545103

>  <compound_id>  (1257) 
46371

>  <target_id>  (1257) 
1

>  <reference_id>  (1257) 
115

>  <inspiration_ids>  (1257) 
[3, 115]

>  <energy_score>  (1257) 
-19.71287908815063

>  <distance_score>  (1257) 
2.469078215500257

>  <path>  (1257) 
/opt/xchem-fragalysis-2/maxwin/BulkDock/SCRATCH/511020/C46371-P115/C46371-P115.minimised.mol

>  <scratch_subdir>  (1257) 
/opt/xchem-fragalysis-2/maxwin/BulkDock/SCRATCH/511020/C46371-P115

>  <fragmenstein_runtime>  (1257) 
8.576212882995605

>  <fragmenstein_outcome>  (1257) 
too moved

>  <fragmenstein_mode>  (1257) 
expansion

>  <fragmenstein_error>  (1257) 


$$$$
C46372-P3
     RDKit          3D

 29 31  0  0  0  0  0  0  0  0999 V2000
  -13.6679  -26.1480   30.6918 C   0  0  0  0  0  0  0  0  0  0  0  0
  -12.3408  -26.7257   31.1267 C   0  0  0  0  0  0  0  0  0  0  0  0
  -11.5878  -26.6735   29.8907 N   0  0  0  0  0  0  0  0  0  0  0  0
  -11.8787  -25.4017   29.2290 C   0  0  0  0  0  0  0  0  0  0  0  0
  -11.2556  -24.1851   29.8642 C   0  0  0  0  0  0  0  0  0  0  0  0
  -11.6642  -22.9261   29.7918 N   0  0  0  0  0  0  0  0  0  0  0  0
  -10.8540  -22.2161   30.6575 C   0  0  0  0  0  0  0  0  0  0  0  0
   -9.8677  -23.0318   31.1415 C   0  0  0  0  0  0  0  0  0  0  0  0
  -10.1355  -24.2636   30.6516 N   0  0  0  0  0  0  0  0  0  0  0  0
   -8.8390  -22.7150   32.1418 C   0  0  0  0  0  0  0  0  0  0  0  0
   -9.4751  -21.8837   33.2430 C   0  0  0  0  0  0  0  0  0  0  0  0
  -10.3637  -20.3739   32.6940 S   0  0  0  0  0  0  0  0  0  0  0  0
  -11.1271  -20.8270   31.0976 C   0  0  0  0  0  0  0  0  0  0  0  0
  -13.3898  -25.4172   29.3680 C   0  0  0  0  0  0  0  0  0  0  0  0
  -14.3993  -26.9459   30.5130 H   0  0  0  0  0  0  0  0  0  0  0  0
  -14.0986  -25.4964   31.4545 H   0  0  0  0  0  0  0  0  0  0  0  0
  -11.8837  -26.1212   31.9159 H   0  0  0  0  0  0  0  0  0  0  0  0
  -12.4428  -27.7502   31.4962 H   0  0  0  0  0  0  0  0  0  0  0  0
  -10.6205  -26.8801   30.0064 H   0  0  0  0  0  0  0  0  0  0  0  0
  -11.5868  -25.4373   28.1743 H   0  0  0  0  0  0  0  0  0  0  0  0
   -9.6354  -25.1009   30.8956 H   0  0  0  0  0  0  0  0  0  0  0  0
   -8.4097  -23.6317   32.5516 H   0  0  0  0  0  0  0  0  0  0  0  0
   -8.0219  -22.1671   31.6722 H   0  0  0  0  0  0  0  0  0  0  0  0
   -8.7045  -21.5851   33.9576 H   0  0  0  0  0  0  0  0  0  0  0  0
  -10.1945  -22.4838   33.7940 H   0  0  0  0  0  0  0  0  0  0  0  0
  -12.1948  -20.6544   31.1994 H   0  0  0  0  0  0  0  0  0  0  0  0
  -10.7995  -20.1198   30.3312 H   0  0  0  0  0  0  0  0  0  0  0  0
  -13.8342  -26.0000   28.5495 H   0  0  0  0  0  0  0  0  0  0  0  0
  -13.8594  -24.4311   29.3422 H   0  0  0  0  0  0  0  0  0  0  0  0
  1  2  1  0
  2  3  1  0
  3  4  1  0
  4  5  1  0
  5  6  2  0
  6  7  1  0
  7  8  2  0
  8  9  1  0
  8 10  1  0
 10 11  1  0
 11 12  1  0
 12 13  1  0
  4 14  1  0
 14  1  1  0
  9  5  1  0
 13  7  1  0
  1 15  1  0
  1 16  1  0
  2 17  1  0
  2 18  1  0
  3 19  1  0
  4 20  1  0
  9 21  1  0
 10 22  1  0
 10 23  1  0
 11 24  1  0
 11 25  1  0
 13 26  1  0
 13 27  1  0
 14 28  1  0
 14 29  1  0
M  END
>  <Energy>  (1258) 
48.330042767374785

>  <compound_id>  (1258) 
46372

>  <target_id>  (1258) 
1

>  <reference_id>  (1258) 
3

>  <inspiration_ids>  (1258) 
[3, 115]

>  <energy_score>  (1258) 
-11.32918078074215

>  <distance_score>  (1258) 
2.2646663396603577

>  <path>  (1258) 
/opt/xchem-fragalysis-2/maxwin/BulkDock/SCRATCH/511020/C46372-P3/C46372-P3.minimised.mol

>  <scratch_subdir>  (1258) 
/opt/xchem-fragalysis-2/maxwin/BulkDock/SCRATCH/511020/C46372-P3

>  <fragmenstein_runtime>  (1258) 
3.2224111557006836

>  <fragmenstein_outcome>  (1258) 
too moved

>  <fragmenstein_mode>  (1258) 
expansion

>  <fragmenstein_error>  (1258) 


$$$$
C46372-P115
     RDKit          3D

 29 31  0  0  0  0  0  0  0  0999 V2000
  -11.3834  -26.7468   29.4462 C   0  0  0  0  0  0  0  0  0  0  0  0
   -9.9340  -26.3377   29.5150 C   0  0  0  0  0  0  0  0  0  0  0  0
   -9.8602  -24.9568   29.0640 N   0  0  0  0  0  0  0  0  0  0  0  0
  -11.2201  -24.3828   29.1812 C   0  0  0  0  0  0  0  0  0  0  0  0
  -11.4163  -23.7799   30.5450 C   0  0  0  0  0  0  0  0  0  0  0  0
  -11.6276  -22.4987   30.8245 N   0  0  0  0  0  0  0  0  0  0  0  0
  -11.2634  -22.3517   32.1456 C   0  0  0  0  0  0  0  0  0  0  0  0
  -10.9098  -23.5597   32.6791 C   0  0  0  0  0  0  0  0  0  0  0  0
  -11.1176  -24.4701   31.6965 N   0  0  0  0  0  0  0  0  0  0  0  0
  -10.3509  -23.8196   34.0158 C   0  0  0  0  0  0  0  0  0  0  0  0
   -9.4855  -22.6325   34.4293 C   0  0  0  0  0  0  0  0  0  0  0  0
  -10.3250  -21.0229   34.4444 S   0  0  0  0  0  0  0  0  0  0  0  0
  -11.1451  -21.0484   32.8262 C   0  0  0  0  0  0  0  0  0  0  0  0
  -12.0775  -25.5717   28.8135 C   0  0  0  0  0  0  0  0  0  0  0  0
  -11.5588  -27.6325   28.8348 H   0  0  0  0  0  0  0  0  0  0  0  0
  -11.7722  -26.9463   30.4433 H   0  0  0  0  0  0  0  0  0  0  0  0
   -9.5418  -26.4587   30.5277 H   0  0  0  0  0  0  0  0  0  0  0  0
   -9.3219  -26.9183   28.8344 H   0  0  0  0  0  0  0  0  0  0  0  0
   -9.6386  -24.9504   28.0685 H   0  0  0  0  0  0  0  0  0  0  0  0
  -11.3389  -23.5816   28.4418 H   0  0  0  0  0  0  0  0  0  0  0  0
  -10.8885  -25.4469   31.7623 H   0  0  0  0  0  0  0  0  0  0  0  0
  -11.1614  -23.9741   34.7378 H   0  0  0  0  0  0  0  0  0  0  0  0
   -9.7440  -24.7319   34.0112 H   0  0  0  0  0  0  0  0  0  0  0  0
   -8.6314  -22.5322   33.7565 H   0  0  0  0  0  0  0  0  0  0  0  0
   -9.1080  -22.8012   35.4368 H   0  0  0  0  0  0  0  0  0  0  0  0
  -12.1441  -20.6569   32.9975 H   0  0  0  0  0  0  0  0  0  0  0  0
  -10.5715  -20.3850   32.1921 H   0  0  0  0  0  0  0  0  0  0  0  0
  -12.0812  -25.7006   27.7222 H   0  0  0  0  0  0  0  0  0  0  0  0
  -13.1140  -25.5314   29.1314 H   0  0  0  0  0  0  0  0  0  0  0  0
  1  2  1  0
  2  3  1  0
  3  4  1  0
  4  5  1  0
  5  6  2  0
  6  7  1  0
  7  8  2  0
  8  9  1  0
  8 10  1  0
 10 11  1  0
 11 12  1  0
 12 13  1  0
  4 14  1  0
 14  1  1  0
  9  5  1  0
 13  7  1  0
  1 15  1  0
  1 16  1  0
  2 17  1  0
  2 18  1  0
  3 19  1  0
  4 20  1  0
  9 21  1  0
 10 22  1  0
 10 23  1  0
 11 24  1  0
 11 25  1  0
 13 26  1  0
 13 27  1  0
 14 28  1  0
 14 29  1  0
M  END
>  <Energy>  (1259) 
51.021584130023683

>  <compound_id>  (1259) 
46372

>  <target_id>  (1259) 
1

>  <reference_id>  (1259) 
115

>  <inspiration_ids>  (1259) 
[3, 115]

>  <energy_score>  (1259) 
-8.637639418093244

>  <distance_score>  (1259) 
2.078632487416498

>  <path>  (1259) 
/opt/xchem-fragalysis-2/maxwin/BulkDock/SCRATCH/511020/C46372-P115/C46372-P115.minimised.mol

>  <scratch_subdir>  (1259) 
/opt/xchem-fragalysis-2/maxwin/BulkDock/SCRATCH/511020/C46372-P115

>  <fragmenstein_runtime>  (1259) 
2.3330678939819336

>  <fragmenstein_outcome>  (1259) 
too moved

>  <fragmenstein_mode>  (1259) 
expansion

>  <fragmenstein_error>  (1259) 


$$$$
C46373-P3
     RDKit          3D

 29 31  0  0  0  0  0  0  0  0999 V2000
  -12.2959  -27.0592   30.8657 C   0  0  0  0  0  0  0  0  0  0  0  0
  -13.1983  -25.9876   30.2954 C   0  0  0  0  0  0  0  0  0  0  0  0
  -12.3466  -25.2932   29.2254 C   0  0  0  0  0  0  0  0  0  0  0  0
  -11.4945  -24.1845   29.7943 C   0  0  0  0  0  0  0  0  0  0  0  0
  -11.7432  -22.8839   29.7416 N   0  0  0  0  0  0  0  0  0  0  0  0
  -10.9112  -22.3025   30.6817 C   0  0  0  0  0  0  0  0  0  0  0  0
  -10.0712  -23.2446   31.2199 C   0  0  0  0  0  0  0  0  0  0  0  0
  -10.4045  -24.4098   30.5965 N   0  0  0  0  0  0  0  0  0  0  0  0
   -9.1389  -23.1681   32.3623 C   0  0  0  0  0  0  0  0  0  0  0  0
   -8.9448  -21.4753   32.9719 S   0  0  0  0  0  0  0  0  0  0  0  0
  -10.6114  -20.7922   32.6560 C   0  0  0  0  0  0  0  0  0  0  0  0
  -11.0918  -20.9228   31.2067 C   0  0  0  0  0  0  0  0  0  0  0  0
  -11.5855  -26.4869   28.6633 C   0  0  0  0  0  0  0  0  0  0  0  0
  -11.5784  -27.5215   29.6959 N   0  0  0  0  0  0  0  0  0  0  0  0
  -12.8697  -27.8695   31.3248 H   0  0  0  0  0  0  0  0  0  0  0  0
  -11.6467  -26.6324   31.6308 H   0  0  0  0  0  0  0  0  0  0  0  0
  -14.0550  -26.4685   29.8008 H   0  0  0  0  0  0  0  0  0  0  0  0
  -13.6189  -25.3623   31.0750 H   0  0  0  0  0  0  0  0  0  0  0  0
  -12.9947  -24.8540   28.4573 H   0  0  0  0  0  0  0  0  0  0  0  0
  -10.0165  -25.3104   30.8183 H   0  0  0  0  0  0  0  0  0  0  0  0
   -9.5329  -23.7782   33.1778 H   0  0  0  0  0  0  0  0  0  0  0  0
   -8.1570  -23.5596   32.0855 H   0  0  0  0  0  0  0  0  0  0  0  0
  -11.2816  -21.2916   33.3521 H   0  0  0  0  0  0  0  0  0  0  0  0
  -10.6176  -19.7353   32.9312 H   0  0  0  0  0  0  0  0  0  0  0  0
  -12.1438  -20.6387   31.1665 H   0  0  0  0  0  0  0  0  0  0  0  0
  -10.6037  -20.2000   30.5550 H   0  0  0  0  0  0  0  0  0  0  0  0
  -10.5944  -26.2536   28.2955 H   0  0  0  0  0  0  0  0  0  0  0  0
  -12.1376  -26.8925   27.8066 H   0  0  0  0  0  0  0  0  0  0  0  0
  -10.6968  -27.9916   29.8617 H   0  0  0  0  0  0  0  0  0  0  0  0
  1  2  1  0
  2  3  1  0
  3  4  1  0
  4  5  2  0
  5  6  1  0
  6  7  2  0
  7  8  1  0
  7  9  1  0
  9 10  1  0
 10 11  1  0
 11 12  1  0
  3 13  1  0
 13 14  1  0
 14  1  1  0
  8  4  1  0
 12  6  1  0
  1 15  1  0
  1 16  1  0
  2 17  1  0
  2 18  1  0
  3 19  1  0
  8 20  1  0
  9 21  1  0
  9 22  1  0
 11 23  1  0
 11 24  1  0
 12 25  1  0
 12 26  1  0
 13 27  1  0
 13 28  1  0
 14 29  1  0
M  END
>  <Energy>  (1260) 
25.309506230000999

>  <compound_id>  (1260) 
46373

>  <target_id>  (1260) 
1

>  <reference_id>  (1260) 
3

>  <inspiration_ids>  (1260) 
[3, 115]

>  <energy_score>  (1260) 
-17.92164455485559

>  <distance_score>  (1260) 
2.1685968433710006

>  <path>  (1260) 
/opt/xchem-fragalysis-2/maxwin/BulkDock/SCRATCH/511020/C46373-P3/C46373-P3.minimised.mol

>  <scratch_subdir>  (1260) 
/opt/xchem-fragalysis-2/maxwin/BulkDock/SCRATCH/511020/C46373-P3

>  <fragmenstein_runtime>  (1260) 
2.9348223209381104

>  <fragmenstein_outcome>  (1260) 
too moved

>  <fragmenstein_mode>  (1260) 
expansion

>  <fragmenstein_error>  (1260) 


$$$$
C46373-P115
     RDKit          3D

 29 31  0  0  0  0  0  0  0  0999 V2000
   -9.8625  -26.4498   30.1124 C   0  0  0  0  0  0  0  0  0  0  0  0
  -11.3530  -26.4234   29.9892 C   0  0  0  0  0  0  0  0  0  0  0  0
  -11.6039  -24.9755   29.6308 C   0  0  0  0  0  0  0  0  0  0  0  0
  -11.4586  -24.0621   30.8206 C   0  0  0  0  0  0  0  0  0  0  0  0
  -11.5142  -22.7408   30.8633 N   0  0  0  0  0  0  0  0  0  0  0  0
  -11.1723  -22.4171   32.1571 C   0  0  0  0  0  0  0  0  0  0  0  0
  -10.9395  -23.5318   32.9040 C   0  0  0  0  0  0  0  0  0  0  0  0
  -11.2391  -24.5604   32.0840 N   0  0  0  0  0  0  0  0  0  0  0  0
  -10.5317  -23.6677   34.3013 C   0  0  0  0  0  0  0  0  0  0  0  0
   -9.5136  -22.2582   34.7774 S   0  0  0  0  0  0  0  0  0  0  0  0
  -10.4076  -20.8691   34.0329 C   0  0  0  0  0  0  0  0  0  0  0  0
  -11.0311  -21.0517   32.6574 C   0  0  0  0  0  0  0  0  0  0  0  0
  -10.5296  -24.7655   28.5855 C   0  0  0  0  0  0  0  0  0  0  0  0
   -9.4329  -25.6812   28.9491 N   0  0  0  0  0  0  0  0  0  0  0  0
   -9.4909  -27.4628   30.1212 H   0  0  0  0  0  0  0  0  0  0  0  0
   -9.4877  -25.9850   31.0292 H   0  0  0  0  0  0  0  0  0  0  0  0
  -11.6924  -27.0824   29.1786 H   0  0  0  0  0  0  0  0  0  0  0  0
  -11.8407  -26.7496   30.8897 H   0  0  0  0  0  0  0  0  0  0  0  0
  -12.5949  -24.8924   29.2084 H   0  0  0  0  0  0  0  0  0  0  0  0
  -11.2494  -25.5272   32.3689 H   0  0  0  0  0  0  0  0  0  0  0  0
  -11.4001  -23.7391   34.9600 H   0  0  0  0  0  0  0  0  0  0  0  0
   -9.9404  -24.5773   34.4481 H   0  0  0  0  0  0  0  0  0  0  0  0
  -11.1781  -20.5676   34.7431 H   0  0  0  0  0  0  0  0  0  0  0  0
   -9.7187  -20.0165   34.0004 H   0  0  0  0  0  0  0  0  0  0  0  0
  -12.0317  -20.6357   32.7127 H   0  0  0  0  0  0  0  0  0  0  0  0
  -10.4480  -20.4996   31.9331 H   0  0  0  0  0  0  0  0  0  0  0  0
  -10.1979  -23.7310   28.4716 H   0  0  0  0  0  0  0  0  0  0  0  0
  -10.9023  -25.0816   27.6032 H   0  0  0  0  0  0  0  0  0  0  0  0
   -8.6263  -25.1291   29.2179 H   0  0  0  0  0  0  0  0  0  0  0  0
  1  2  1  0
  2  3  1  0
  3  4  1  0
  4  5  2  0
  5  6  1  0
  6  7  2  0
  7  8  1  0
  7  9  1  0
  9 10  1  0
 10 11  1  0
 11 12  1  0
  3 13  1  0
 13 14  1  0
 14  1  1  0
  8  4  1  0
 12  6  1  0
  1 15  1  0
  1 16  1  0
  2 17  1  0
  2 18  1  0
  3 19  1  0
  8 20  1  0
  9 21  1  0
  9 22  1  0
 11 23  1  0
 11 24  1  0
 12 25  1  0
 12 26  1  0
 13 27  1  0
 13 28  1  0
 14 29  1  0
M  END
>  <Energy>  (1261) 
33.740710168766327

>  <compound_id>  (1261) 
46373

>  <target_id>  (1261) 
1

>  <reference_id>  (1261) 
115

>  <inspiration_ids>  (1261) 
[3, 115]

>  <energy_score>  (1261) 
-9.490440616089273

>  <distance_score>  (1261) 
2.1852717233755166

>  <path>  (1261) 
/opt/xchem-fragalysis-2/maxwin/BulkDock/SCRATCH/511020/C46373-P115/C46373-P115.minimised.mol

>  <scratch_subdir>  (1261) 
/opt/xchem-fragalysis-2/maxwin/BulkDock/SCRATCH/511020/C46373-P115

>  <fragmenstein_runtime>  (1261) 
2.7326889038085938

>  <fragmenstein_outcome>  (1261) 
too moved

>  <fragmenstein_mode>  (1261) 
expansion

>  <fragmenstein_error>  (1261) 


$$$$
C46374-P3
     RDKit          3D

 29 32  0  0  0  0  0  0  0  0999 V2000
  -12.1448  -22.2275   24.8391 C   0  0  0  0  0  0  0  0  0  0  0  0
  -12.6768  -20.9588   25.4780 C   0  0  0  0  0  0  0  0  0  0  0  0
  -12.3640  -21.0427   26.9149 N   0  0  0  0  0  0  0  0  0  0  0  0
  -12.4376  -22.4813   27.1620 C   0  0  0  0  0  0  0  0  0  0  0  0
  -11.8985  -22.9804   28.4359 C   0  0  0  0  0  0  0  0  0  0  0  0
  -12.0962  -24.2256   28.8469 N   0  0  0  0  0  0  0  0  0  0  0  0
  -11.3953  -24.2936   29.9758 C   0  0  0  0  0  0  0  0  0  0  0  0
  -10.8184  -23.1050   30.2960 C   0  0  0  0  0  0  0  0  0  0  0  0
  -11.1411  -22.2350   29.3242 N   0  0  0  0  0  0  0  0  0  0  0  0
  -10.0232  -23.2312   31.5890 C   0  0  0  0  0  0  0  0  0  0  0  0
   -8.8385  -24.1120   31.5631 C   0  0  0  0  0  0  0  0  0  0  0  0
  -10.1622  -24.7345   31.9130 C   0  0  0  0  0  0  0  0  0  0  0  0
  -11.1386  -25.3853   30.9035 C   0  0  0  0  0  0  0  0  0  0  0  0
  -11.6733  -23.0707   26.0048 C   0  0  0  0  0  0  0  0  0  0  0  0
  -12.9579  -22.7181   24.2940 H   0  0  0  0  0  0  0  0  0  0  0  0
  -11.3290  -22.0288   24.1372 H   0  0  0  0  0  0  0  0  0  0  0  0
  -13.7597  -20.9285   25.3362 H   0  0  0  0  0  0  0  0  0  0  0  0
  -12.2444  -20.0728   25.0144 H   0  0  0  0  0  0  0  0  0  0  0  0
  -11.4056  -20.7189   27.0358 H   0  0  0  0  0  0  0  0  0  0  0  0
  -13.4906  -22.7921   27.1018 H   0  0  0  0  0  0  0  0  0  0  0  0
  -10.9050  -21.2534   29.2373 H   0  0  0  0  0  0  0  0  0  0  0  0
  -10.1613  -22.5120   32.3841 H   0  0  0  0  0  0  0  0  0  0  0  0
   -8.1022  -23.9979   32.3472 H   0  0  0  0  0  0  0  0  0  0  0  0
   -8.4299  -24.3325   30.5969 H   0  0  0  0  0  0  0  0  0  0  0  0
  -10.2115  -25.1313   32.9144 H   0  0  0  0  0  0  0  0  0  0  0  0
  -12.0530  -25.6869   31.4237 H   0  0  0  0  0  0  0  0  0  0  0  0
  -10.7632  -26.2423   30.3556 H   0  0  0  0  0  0  0  0  0  0  0  0
  -10.5886  -22.9610   26.1273 H   0  0  0  0  0  0  0  0  0  0  0  0
  -11.8844  -24.1372   25.9051 H   0  0  0  0  0  0  0  0  0  0  0  0
  1  2  1  0
  2  3  1  0
  3  4  1  0
  4  5  1  0
  5  6  2  0
  6  7  1  0
  7  8  2  0
  8  9  1  0
  8 10  1  0
 10 11  1  0
 11 12  1  0
 12 13  1  0
  4 14  1  0
 14  1  1  0
  9  5  1  0
 12 10  1  0
 13  7  1  0
  1 15  1  0
  1 16  1  0
  2 17  1  0
  2 18  1  0
  3 19  1  0
  4 20  1  0
  9 21  1  0
 10 22  1  0
 11 23  1  0
 11 24  1  0
 12 25  1  0
 13 26  1  0
 13 27  1  0
 14 28  1  0
 14 29  1  0
M  END
>  <Energy>  (1262) 
57.092517955008638

>  <compound_id>  (1262) 
46374

>  <target_id>  (1262) 
1

>  <reference_id>  (1262) 
3

>  <inspiration_ids>  (1262) 
[3, 115]

>  <energy_score>  (1262) 
-8.846199281873993

>  <distance_score>  (1262) 
1.9868697542853524

>  <path>  (1262) 
/opt/xchem-fragalysis-2/maxwin/BulkDock/SCRATCH/511020/C46374-P3/C46374-P3.minimised.mol

>  <scratch_subdir>  (1262) 
/opt/xchem-fragalysis-2/maxwin/BulkDock/SCRATCH/511020/C46374-P3

>  <fragmenstein_runtime>  (1262) 
14.239617586135864

>  <fragmenstein_outcome>  (1262) 
too moved

>  <fragmenstein_mode>  (1262) 
expansion

>  <fragmenstein_error>  (1262) 


$$$$
C46374-P115
     RDKit          3D

 29 32  0  0  0  0  0  0  0  0999 V2000
  -11.0727  -22.3845   28.0152 C   0  0  0  0  0  0  0  0  0  0  0  0
  -11.6815  -21.8025   29.2586 C   0  0  0  0  0  0  0  0  0  0  0  0
  -12.3444  -22.8865   29.9531 N   0  0  0  0  0  0  0  0  0  0  0  0
  -11.8299  -24.1375   29.3484 C   0  0  0  0  0  0  0  0  0  0  0  0
  -10.8719  -24.7932   30.2263 C   0  0  0  0  0  0  0  0  0  0  0  0
  -10.3020  -25.9477   29.9446 N   0  0  0  0  0  0  0  0  0  0  0  0
   -9.8971  -26.3628   31.1481 C   0  0  0  0  0  0  0  0  0  0  0  0
  -10.1107  -25.4411   32.1288 C   0  0  0  0  0  0  0  0  0  0  0  0
  -10.7390  -24.4150   31.5526 N   0  0  0  0  0  0  0  0  0  0  0  0
   -9.8068  -26.0225   33.5063 C   0  0  0  0  0  0  0  0  0  0  0  0
   -8.4511  -26.6168   33.7383 C   0  0  0  0  0  0  0  0  0  0  0  0
   -9.4980  -27.4811   33.1492 C   0  0  0  0  0  0  0  0  0  0  0  0
   -9.5233  -27.6834   31.6464 C   0  0  0  0  0  0  0  0  0  0  0  0
  -11.3345  -23.8549   27.9571 C   0  0  0  0  0  0  0  0  0  0  0  0
  -11.4156  -21.8958   27.1086 H   0  0  0  0  0  0  0  0  0  0  0  0
  -10.0070  -22.2639   28.1541 H   0  0  0  0  0  0  0  0  0  0  0  0
  -12.3803  -21.0004   29.0476 H   0  0  0  0  0  0  0  0  0  0  0  0
  -10.9230  -21.3676   29.9134 H   0  0  0  0  0  0  0  0  0  0  0  0
  -13.3014  -22.8885   29.5950 H   0  0  0  0  0  0  0  0  0  0  0  0
  -12.6198  -24.8953   29.2802 H   0  0  0  0  0  0  0  0  0  0  0  0
  -11.2257  -23.6334   31.9733 H   0  0  0  0  0  0  0  0  0  0  0  0
  -10.4595  -25.8068   34.3391 H   0  0  0  0  0  0  0  0  0  0  0  0
   -7.6571  -26.2807   33.0953 H   0  0  0  0  0  0  0  0  0  0  0  0
   -8.0982  -26.9697   34.6873 H   0  0  0  0  0  0  0  0  0  0  0  0
   -9.8728  -28.3034   33.7337 H   0  0  0  0  0  0  0  0  0  0  0  0
   -8.5495  -28.0344   31.3304 H   0  0  0  0  0  0  0  0  0  0  0  0
  -10.2977  -28.4062   31.4125 H   0  0  0  0  0  0  0  0  0  0  0  0
  -10.4366  -24.4144   27.6724 H   0  0  0  0  0  0  0  0  0  0  0  0
  -12.0949  -24.0650   27.1975 H   0  0  0  0  0  0  0  0  0  0  0  0
  1  2  1  0
  2  3  1  0
  3  4  1  0
  4  5  1  0
  5  6  2  0
  6  7  1  0
  7  8  2  0
  8  9  1  0
  8 10  1  0
 10 11  1  0
 11 12  1  0
 12 13  1  0
  4 14  1  0
 14  1  1  0
  9  5  1  0
 12 10  1  0
 13  7  1  0
  1 15  1  0
  1 16  1  0
  2 17  1  0
  2 18  1  0
  3 19  1  0
  4 20  1  0
  9 21  1  0
 10 22  1  0
 11 23  1  0
 11 24  1  0
 12 25  1  0
 13 26  1  0
 13 27  1  0
 14 28  1  0
 14 29  1  0
M  END
>  <Energy>  (1263) 
62.557559820510178

>  <compound_id>  (1263) 
46374

>  <target_id>  (1263) 
1

>  <reference_id>  (1263) 
115

>  <inspiration_ids>  (1263) 
[3, 115]

>  <energy_score>  (1263) 
-3.38115741637273

>  <distance_score>  (1263) 
2.8974358429782234

>  <path>  (1263) 
/opt/xchem-fragalysis-2/maxwin/BulkDock/SCRATCH/511020/C46374-P115/C46374-P115.minimised.mol

>  <scratch_subdir>  (1263) 
/opt/xchem-fragalysis-2/maxwin/BulkDock/SCRATCH/511020/C46374-P115

>  <fragmenstein_runtime>  (1263) 
16.304208993911743

>  <fragmenstein_outcome>  (1263) 
too moved

>  <fragmenstein_mode>  (1263) 
expansion

>  <fragmenstein_error>  (1263) 


$$$$
C18081-P3
     RDKit          3D

 52 53  0  0  0  0  0  0  0  0999 V2000
  -12.4331  -21.4605   25.5165 C   0  0  0  0  0  0  0  0  0  0  0  0
  -12.9825  -22.4783   26.4852 C   0  0  0  0  0  0  0  0  0  0  0  0
  -14.0930  -22.8945   26.3244 O   0  0  0  0  0  0  0  0  0  0  0  0
  -12.0077  -22.7750   27.4955 N   0  0  0  0  0  0  0  0  0  0  0  0
  -12.0258  -23.7360   28.5746 C   0  0  0  0  0  0  0  0  0  0  0  0
  -11.3701  -23.2942   29.9032 C   0  0  0  0  0  0  0  0  0  0  0  0
   -9.9296  -22.8533   30.0559 C   0  0  0  0  0  0  0  0  0  0  0  0
   -9.4778  -22.3835   31.4551 C   0  0  0  0  0  0  0  0  0  0  0  0
  -10.3321  -21.2865   32.0744 C   0  0  0  0  0  0  0  0  0  0  0  0
   -9.3081  -23.5589   32.4060 C   0  0  0  0  0  0  0  0  0  0  0  0
  -11.7380  -25.1571   27.9861 C   0  0  0  0  0  0  0  0  0  0  0  0
  -11.1989  -25.2589   26.9147 O   0  0  0  0  0  0  0  0  0  0  0  0
  -12.2061  -26.1582   28.8832 N   0  0  0  0  0  0  0  0  0  0  0  0
  -12.0818  -27.6418   28.8365 C   0  0  0  0  0  0  0  0  0  0  0  0
  -13.0331  -28.3674   29.7463 C   0  0  0  0  0  0  0  0  0  0  0  0
  -14.2337  -27.5014   29.5742 C   0  0  0  0  0  0  0  0  0  0  0  0
  -14.6292  -26.9453   30.8413 N   0  0  0  0  0  0  0  0  0  0  0  0
  -15.3473  -25.7615   31.1568 C   0  0  0  0  0  0  0  0  0  0  0  0
  -15.7419  -24.8783   30.4570 O   0  0  0  0  0  0  0  0  0  0  0  0
  -15.5418  -25.7244   32.5967 C   0  0  0  0  0  0  0  0  0  0  0  0
  -15.1780  -26.7079   33.4092 N   0  0  0  0  0  0  0  0  0  0  0  0
  -15.5246  -26.2821   34.6619 C   0  0  0  0  0  0  0  0  0  0  0  0
  -16.0578  -25.0169   34.6190 C   0  0  0  0  0  0  0  0  0  0  0  0
  -16.0565  -24.6680   33.2978 N   0  0  0  0  0  0  0  0  0  0  0  0
  -13.6597  -26.4959   28.5845 C   0  0  0  0  0  0  0  0  0  0  0  0
  -12.1398  -20.5582   26.0575 H   0  0  0  0  0  0  0  0  0  0  0  0
  -13.2052  -21.1891   24.7902 H   0  0  0  0  0  0  0  0  0  0  0  0
  -11.5871  -21.8904   24.9745 H   0  0  0  0  0  0  0  0  0  0  0  0
  -11.1413  -22.2975   27.2694 H   0  0  0  0  0  0  0  0  0  0  0  0
  -13.0934  -23.7946   28.8149 H   0  0  0  0  0  0  0  0  0  0  0  0
  -11.9039  -22.3947   30.1960 H   0  0  0  0  0  0  0  0  0  0  0  0
  -11.5404  -24.0949   30.6262 H   0  0  0  0  0  0  0  0  0  0  0  0
   -9.2939  -23.7045   29.8751 H   0  0  0  0  0  0  0  0  0  0  0  0
   -9.7346  -22.0592   29.3298 H   0  0  0  0  0  0  0  0  0  0  0  0
   -8.4720  -21.9707   31.3355 H   0  0  0  0  0  0  0  0  0  0  0  0
  -10.5983  -20.5156   31.3455 H   0  0  0  0  0  0  0  0  0  0  0  0
   -9.7930  -20.8009   32.8950 H   0  0  0  0  0  0  0  0  0  0  0  0
  -11.2498  -21.6894   32.4899 H   0  0  0  0  0  0  0  0  0  0  0  0
   -9.3336  -23.2121   33.4413 H   0  0  0  0  0  0  0  0  0  0  0  0
  -10.0735  -24.3248   32.2772 H   0  0  0  0  0  0  0  0  0  0  0  0
   -8.3456  -24.0473   32.2226 H   0  0  0  0  0  0  0  0  0  0  0  0
  -11.0535  -27.8633   29.1447 H   0  0  0  0  0  0  0  0  0  0  0  0
  -12.1223  -27.9943   27.7989 H   0  0  0  0  0  0  0  0  0  0  0  0
  -13.1936  -29.3974   29.4134 H   0  0  0  0  0  0  0  0  0  0  0  0
  -12.6537  -28.3939   30.7743 H   0  0  0  0  0  0  0  0  0  0  0  0
  -15.0995  -28.0260   29.1594 H   0  0  0  0  0  0  0  0  0  0  0  0
  -14.5352  -27.5116   31.6874 H   0  0  0  0  0  0  0  0  0  0  0  0
  -15.3621  -26.8990   35.5361 H   0  0  0  0  0  0  0  0  0  0  0  0
  -16.4166  -24.3459   35.3871 H   0  0  0  0  0  0  0  0  0  0  0  0
  -16.3328  -23.7796   32.8960 H   0  0  0  0  0  0  0  0  0  0  0  0
  -14.2274  -25.5606   28.6181 H   0  0  0  0  0  0  0  0  0  0  0  0
  -13.7769  -26.8167   27.5327 H   0  0  0  0  0  0  0  0  0  0  0  0
  1  2  1  0
  2  3  2  0
  2  4  1  0
  4  5  1  0
  5  6  1  0
  6  7  1  0
  7  8  1  0
  8  9  1  0
  8 10  1  0
  5 11  1  0
 11 12  2  0
 11 13  1  0
 13 14  1  0
 14 15  1  0
 15 16  1  0
 16 17  1  0
 17 18  1  0
 18 19  2  0
 18 20  1  0
 20 21  2  0
 21 22  1  0
 22 23  2  0
 23 24  1  0
 16 25  1  0
 25 13  1  0
 24 20  1  0
  1 26  1  0
  1 27  1  0
  1 28  1  0
  4 29  1  0
  5 30  1  0
  6 31  1  0
  6 32  1  0
  7 33  1  0
  7 34  1  0
  8 35  1  0
  9 36  1  0
  9 37  1  0
  9 38  1  0
 10 39  1  0
 10 40  1  0
 10 41  1  0
 14 42  1  0
 14 43  1  0
 15 44  1  0
 15 45  1  0
 16 46  1  0
 17 47  1  0
 22 48  1  0
 23 49  1  0
 24 50  1  0
 25 51  1  0
 25 52  1  0
M  END
>  <Energy>  (1264) 
94.827155966332214

>  <compound_id>  (1264) 
18081

>  <target_id>  (1264) 
1

>  <reference_id>  (1264) 
3

>  <inspiration_ids>  (1264) 
[3, 115]

>  <energy_score>  (1264) 
12.398340671645173

>  <distance_score>  (1264) 
4.9463630264658836

>  <path>  (1264) 
/opt/xchem-fragalysis-2/maxwin/BulkDock/SCRATCH/511020/C18081-P3/C18081-P3.minimised.mol

>  <scratch_subdir>  (1264) 
/opt/xchem-fragalysis-2/maxwin/BulkDock/SCRATCH/511020/C18081-P3

>  <fragmenstein_runtime>  (1264) 
35.054123401641846

>  <fragmenstein_outcome>  (1264) 
too moved

>  <fragmenstein_mode>  (1264) 
expansion

>  <fragmenstein_error>  (1264) 


$$$$
C18081-P115
     RDKit          3D

 52 53  0  0  0  0  0  0  0  0999 V2000
  -11.3230  -21.6852   32.5962 C   0  0  0  0  0  0  0  0  0  0  0  0
  -11.7772  -22.6631   31.5296 C   0  0  0  0  0  0  0  0  0  0  0  0
  -12.7961  -22.4639   30.9317 O   0  0  0  0  0  0  0  0  0  0  0  0
  -10.8460  -23.7486   31.4572 N   0  0  0  0  0  0  0  0  0  0  0  0
  -10.8888  -24.9974   30.7075 C   0  0  0  0  0  0  0  0  0  0  0  0
  -10.4002  -26.1451   31.5618 C   0  0  0  0  0  0  0  0  0  0  0  0
   -9.0998  -25.9332   32.3254 C   0  0  0  0  0  0  0  0  0  0  0  0
   -9.2631  -26.1024   33.8413 C   0  0  0  0  0  0  0  0  0  0  0  0
  -10.2955  -25.1436   34.4483 C   0  0  0  0  0  0  0  0  0  0  0  0
   -9.4554  -27.5749   34.2062 C   0  0  0  0  0  0  0  0  0  0  0  0
  -10.2946  -25.1160   29.2598 C   0  0  0  0  0  0  0  0  0  0  0  0
   -9.3539  -24.4659   28.9199 O   0  0  0  0  0  0  0  0  0  0  0  0
  -11.1120  -25.9946   28.5223 N   0  0  0  0  0  0  0  0  0  0  0  0
  -11.0002  -26.4808   27.1109 C   0  0  0  0  0  0  0  0  0  0  0  0
  -11.9817  -26.0888   26.0436 C   0  0  0  0  0  0  0  0  0  0  0  0
  -13.1241  -26.0173   26.9787 C   0  0  0  0  0  0  0  0  0  0  0  0
  -13.5334  -27.2356   27.6829 N   0  0  0  0  0  0  0  0  0  0  0  0
  -14.7474  -27.5798   28.3145 C   0  0  0  0  0  0  0  0  0  0  0  0
  -15.7876  -26.9995   28.3723 O   0  0  0  0  0  0  0  0  0  0  0  0
  -14.5453  -28.8214   29.0469 C   0  0  0  0  0  0  0  0  0  0  0  0
  -13.3887  -29.4648   29.0813 N   0  0  0  0  0  0  0  0  0  0  0  0
  -13.5952  -30.5417   29.8996 C   0  0  0  0  0  0  0  0  0  0  0  0
  -14.8794  -30.5408   30.3860 C   0  0  0  0  0  0  0  0  0  0  0  0
  -15.4774  -29.4461   29.8284 N   0  0  0  0  0  0  0  0  0  0  0  0
  -12.2639  -25.2592   27.9549 C   0  0  0  0  0  0  0  0  0  0  0  0
  -12.1879  -21.1274   32.9639 H   0  0  0  0  0  0  0  0  0  0  0  0
  -10.5930  -20.9950   32.1723 H   0  0  0  0  0  0  0  0  0  0  0  0
  -10.8868  -22.1982   33.4567 H   0  0  0  0  0  0  0  0  0  0  0  0
  -10.1399  -23.6245   32.1692 H   0  0  0  0  0  0  0  0  0  0  0  0
  -11.9546  -25.1655   30.5923 H   0  0  0  0  0  0  0  0  0  0  0  0
  -10.3299  -27.0673   30.9735 H   0  0  0  0  0  0  0  0  0  0  0  0
  -11.1944  -26.2909   32.2844 H   0  0  0  0  0  0  0  0  0  0  0  0
   -8.4026  -26.7026   31.9952 H   0  0  0  0  0  0  0  0  0  0  0  0
   -8.6299  -24.9749   32.0987 H   0  0  0  0  0  0  0  0  0  0  0  0
   -8.3086  -25.8615   34.2989 H   0  0  0  0  0  0  0  0  0  0  0  0
   -9.9011  -24.1227   34.4490 H   0  0  0  0  0  0  0  0  0  0  0  0
  -10.5352  -25.4076   35.4789 H   0  0  0  0  0  0  0  0  0  0  0  0
  -11.2518  -25.1270   33.9233 H   0  0  0  0  0  0  0  0  0  0  0  0
  -10.1068  -28.0960   33.5074 H   0  0  0  0  0  0  0  0  0  0  0  0
   -8.4911  -28.0957   34.1617 H   0  0  0  0  0  0  0  0  0  0  0  0
   -9.8422  -27.6974   35.2205 H   0  0  0  0  0  0  0  0  0  0  0  0
  -11.0841  -27.5556   27.2049 H   0  0  0  0  0  0  0  0  0  0  0  0
   -9.9783  -26.3044   26.8202 H   0  0  0  0  0  0  0  0  0  0  0  0
  -11.7315  -25.1127   25.6056 H   0  0  0  0  0  0  0  0  0  0  0  0
  -12.0459  -26.7872   25.2140 H   0  0  0  0  0  0  0  0  0  0  0  0
  -13.9691  -25.4976   26.5418 H   0  0  0  0  0  0  0  0  0  0  0  0
  -12.8293  -27.9358   27.9163 H   0  0  0  0  0  0  0  0  0  0  0  0
  -12.8109  -31.2608   30.1030 H   0  0  0  0  0  0  0  0  0  0  0  0
  -15.4074  -31.2091   31.0521 H   0  0  0  0  0  0  0  0  0  0  0  0
  -16.4278  -29.1240   29.9663 H   0  0  0  0  0  0  0  0  0  0  0  0
  -12.8637  -25.1294   28.8539 H   0  0  0  0  0  0  0  0  0  0  0  0
  -11.9492  -24.2538   27.6206 H   0  0  0  0  0  0  0  0  0  0  0  0
  1  2  1  0
  2  3  2  0
  2  4  1  0
  4  5  1  0
  5  6  1  0
  6  7  1  0
  7  8  1  0
  8  9  1  0
  8 10  1  0
  5 11  1  0
 11 12  2  0
 11 13  1  0
 13 14  1  0
 14 15  1  0
 15 16  1  0
 16 17  1  0
 17 18  1  0
 18 19  2  0
 18 20  1  0
 20 21  2  0
 21 22  1  0
 22 23  2  0
 23 24  1  0
 16 25  1  0
 25 13  1  0
 24 20  1  0
  1 26  1  0
  1 27  1  0
  1 28  1  0
  4 29  1  0
  5 30  1  0
  6 31  1  0
  6 32  1  0
  7 33  1  0
  7 34  1  0
  8 35  1  0
  9 36  1  0
  9 37  1  0
  9 38  1  0
 10 39  1  0
 10 40  1  0
 10 41  1  0
 14 42  1  0
 14 43  1  0
 15 44  1  0
 15 45  1  0
 16 46  1  0
 17 47  1  0
 22 48  1  0
 23 49  1  0
 24 50  1  0
 25 51  1  0
 25 52  1  0
M  END
>  <Energy>  (1265) 
117.43441576809647

>  <compound_id>  (1265) 
18081

>  <target_id>  (1265) 
1

>  <reference_id>  (1265) 
115

>  <inspiration_ids>  (1265) 
[3, 115]

>  <energy_score>  (1265) 
35.00560047341236

>  <distance_score>  (1265) 
4.782800492772133

>  <path>  (1265) 
/opt/xchem-fragalysis-2/maxwin/BulkDock/SCRATCH/511020/C18081-P115/C18081-P115.minimised.mol

>  <scratch_subdir>  (1265) 
/opt/xchem-fragalysis-2/maxwin/BulkDock/SCRATCH/511020/C18081-P115

>  <fragmenstein_runtime>  (1265) 
22.454414129257202

>  <fragmenstein_outcome>  (1265) 
too moved

>  <fragmenstein_mode>  (1265) 
expansion

>  <fragmenstein_error>  (1265) 


$$$$
C46375-P3
     RDKit          3D

 49 50  0  0  0  0  0  0  0  0999 V2000
   -8.7060  -22.1311   32.9976 C   0  0  0  0  0  0  0  0  0  0  0  0
   -9.2239  -22.5115   31.6209 C   0  0  0  0  0  0  0  0  0  0  0  0
   -9.4319  -24.0045   31.5134 C   0  0  0  0  0  0  0  0  0  0  0  0
  -10.7597  -21.5778   31.3452 S   0  0  0  0  0  0  0  0  0  0  0  0
  -10.7762  -21.4175   29.5230 C   0  0  0  0  0  0  0  0  0  0  0  0
  -11.0081  -19.9452   29.1871 C   0  0  0  0  0  0  0  0  0  0  0  0
  -11.8097  -22.3818   28.8967 C   0  0  0  0  0  0  0  0  0  0  0  0
  -12.0783  -23.4251   29.3738 O   0  0  0  0  0  0  0  0  0  0  0  0
  -12.2914  -21.7383   27.6093 N   0  0  0  0  0  0  0  0  0  0  0  0
  -13.3446  -22.1989   26.5965 C   0  0  0  0  0  0  0  0  0  0  0  0
  -13.0209  -23.2861   25.5997 C   0  0  0  0  0  0  0  0  0  0  0  0
  -11.6053  -23.4736   25.9668 C   0  0  0  0  0  0  0  0  0  0  0  0
  -11.5063  -24.5510   26.9012 N   0  0  0  0  0  0  0  0  0  0  0  0
  -11.4609  -26.0705   26.6720 C   0  0  0  0  0  0  0  0  0  0  0  0
  -11.4195  -26.6827   25.6844 O   0  0  0  0  0  0  0  0  0  0  0  0
  -11.4046  -26.6842   28.0532 C   0  0  0  0  0  0  0  0  0  0  0  0
  -12.7428  -26.6109   28.7332 C   0  0  0  0  0  0  0  0  0  0  0  0
  -12.6308  -26.7700   30.2057 C   0  0  0  0  0  0  0  0  0  0  0  0
  -13.4178  -26.2069   31.1824 C   0  0  0  0  0  0  0  0  0  0  0  0
  -12.9868  -26.7552   32.3539 N   0  0  0  0  0  0  0  0  0  0  0  0
  -11.9760  -27.6110   32.0608 C   0  0  0  0  0  0  0  0  0  0  0  0
  -11.7286  -27.6348   30.7705 N   0  0  0  0  0  0  0  0  0  0  0  0
  -11.4208  -22.0858   26.4849 C   0  0  0  0  0  0  0  0  0  0  0  0
   -8.5917  -21.0460   33.0928 H   0  0  0  0  0  0  0  0  0  0  0  0
   -9.3688  -22.4731   33.7996 H   0  0  0  0  0  0  0  0  0  0  0  0
   -7.7164  -22.5668   33.1591 H   0  0  0  0  0  0  0  0  0  0  0  0
   -8.4797  -22.2125   30.8828 H   0  0  0  0  0  0  0  0  0  0  0  0
  -10.0670  -24.4028   32.3057 H   0  0  0  0  0  0  0  0  0  0  0  0
   -9.8583  -24.2924   30.5508 H   0  0  0  0  0  0  0  0  0  0  0  0
   -8.4608  -24.4935   31.6132 H   0  0  0  0  0  0  0  0  0  0  0  0
   -9.8025  -21.7188   29.1331 H   0  0  0  0  0  0  0  0  0  0  0  0
  -10.6330  -19.2447   29.9386 H   0  0  0  0  0  0  0  0  0  0  0  0
  -12.0494  -19.6910   29.0145 H   0  0  0  0  0  0  0  0  0  0  0  0
  -10.4857  -19.7258   28.2542 H   0  0  0  0  0  0  0  0  0  0  0  0
  -14.1840  -22.5732   27.1897 H   0  0  0  0  0  0  0  0  0  0  0  0
  -13.6967  -21.3024   26.0672 H   0  0  0  0  0  0  0  0  0  0  0  0
  -13.1534  -22.8921   24.5847 H   0  0  0  0  0  0  0  0  0  0  0  0
  -13.6590  -24.1696   25.7084 H   0  0  0  0  0  0  0  0  0  0  0  0
  -10.8879  -23.6449   25.1680 H   0  0  0  0  0  0  0  0  0  0  0  0
  -11.4532  -24.3561   27.8991 H   0  0  0  0  0  0  0  0  0  0  0  0
  -10.6767  -26.1362   28.6455 H   0  0  0  0  0  0  0  0  0  0  0  0
  -11.0368  -27.7112   28.0030 H   0  0  0  0  0  0  0  0  0  0  0  0
  -13.2646  -25.6724   28.5126 H   0  0  0  0  0  0  0  0  0  0  0  0
  -13.3906  -27.4057   28.3421 H   0  0  0  0  0  0  0  0  0  0  0  0
  -14.2708  -25.5448   31.1332 H   0  0  0  0  0  0  0  0  0  0  0  0
  -13.4133  -26.6479   33.2619 H   0  0  0  0  0  0  0  0  0  0  0  0
  -11.4680  -28.1878   32.8232 H   0  0  0  0  0  0  0  0  0  0  0  0
  -11.5306  -21.3310   25.6923 H   0  0  0  0  0  0  0  0  0  0  0  0
  -10.3999  -22.0297   26.8705 H   0  0  0  0  0  0  0  0  0  0  0  0
  1  2  1  0
  2  3  1  0
  2  4  1  0
  4  5  1  0
  5  6  1  0
  5  7  1  0
  7  8  2  0
  7  9  1  0
  9 10  1  0
 10 11  1  0
 11 12  1  0
 12 13  1  0
 13 14  1  0
 14 15  2  0
 14 16  1  0
 16 17  1  0
 17 18  1  0
 18 19  2  0
 19 20  1  0
 20 21  1  0
 21 22  2  0
 12 23  1  0
 23  9  1  0
 22 18  1  0
  1 24  1  0
  1 25  1  0
  1 26  1  0
  2 27  1  0
  3 28  1  0
  3 29  1  0
  3 30  1  0
  5 31  1  0
  6 32  1  0
  6 33  1  0
  6 34  1  0
 10 35  1  0
 10 36  1  0
 11 37  1  0
 11 38  1  0
 12 39  1  0
 13 40  1  0
 16 41  1  0
 16 42  1  0
 17 43  1  0
 17 44  1  0
 19 45  1  0
 20 46  1  0
 21 47  1  0
 23 48  1  0
 23 49  1  0
M  END
>  <Energy>  (1266) 
111.67489349582372

>  <compound_id>  (1266) 
46375

>  <target_id>  (1266) 
1

>  <reference_id>  (1266) 
3

>  <inspiration_ids>  (1266) 
[3, 115]

>  <energy_score>  (1266) 
43.1743143739825

>  <distance_score>  (1266) 
1.8456720675133285

>  <path>  (1266) 
/opt/xchem-fragalysis-2/maxwin/BulkDock/SCRATCH/511020/C46375-P3/C46375-P3.minimised.mol

>  <scratch_subdir>  (1266) 
/opt/xchem-fragalysis-2/maxwin/BulkDock/SCRATCH/511020/C46375-P3

>  <fragmenstein_runtime>  (1266) 
8.308141946792603

>  <fragmenstein_outcome>  (1266) 
too moved

>  <fragmenstein_mode>  (1266) 
expansion

>  <fragmenstein_error>  (1266) 


$$$$
C46375-P115
     RDKit          3D

 49 50  0  0  0  0  0  0  0  0999 V2000
  -10.1915  -20.3688   33.3298 C   0  0  0  0  0  0  0  0  0  0  0  0
   -9.7598  -21.6775   33.9389 C   0  0  0  0  0  0  0  0  0  0  0  0
   -9.5557  -21.4075   35.4189 C   0  0  0  0  0  0  0  0  0  0  0  0
  -11.0096  -22.9886   33.7348 S   0  0  0  0  0  0  0  0  0  0  0  0
  -11.4258  -22.9301   31.9189 C   0  0  0  0  0  0  0  0  0  0  0  0
  -12.6428  -22.0768   31.7623 C   0  0  0  0  0  0  0  0  0  0  0  0
  -11.4972  -24.3637   31.3365 C   0  0  0  0  0  0  0  0  0  0  0  0
  -10.9564  -25.2076   32.0048 O   0  0  0  0  0  0  0  0  0  0  0  0
  -12.1262  -24.4566   30.0174 N   0  0  0  0  0  0  0  0  0  0  0  0
  -12.4004  -25.6946   29.1061 C   0  0  0  0  0  0  0  0  0  0  0  0
  -11.3247  -26.1688   28.1391 C   0  0  0  0  0  0  0  0  0  0  0  0
  -10.2184  -25.3335   28.6540 C   0  0  0  0  0  0  0  0  0  0  0  0
   -9.5747  -25.9045   29.8194 N   0  0  0  0  0  0  0  0  0  0  0  0
   -9.9822  -26.9853   30.6954 C   0  0  0  0  0  0  0  0  0  0  0  0
  -10.9152  -27.7313   30.6301 O   0  0  0  0  0  0  0  0  0  0  0  0
   -8.9967  -27.1484   31.8628 C   0  0  0  0  0  0  0  0  0  0  0  0
   -9.6030  -27.7248   33.1178 C   0  0  0  0  0  0  0  0  0  0  0  0
   -8.5985  -28.1495   34.1221 C   0  0  0  0  0  0  0  0  0  0  0  0
   -8.7164  -29.1512   35.0597 C   0  0  0  0  0  0  0  0  0  0  0  0
   -7.5132  -29.1817   35.7021 N   0  0  0  0  0  0  0  0  0  0  0  0
   -6.7226  -28.2225   35.1428 C   0  0  0  0  0  0  0  0  0  0  0  0
   -7.3643  -27.5610   34.2116 N   0  0  0  0  0  0  0  0  0  0  0  0
  -11.1410  -24.1690   28.9514 C   0  0  0  0  0  0  0  0  0  0  0  0
  -11.1490  -20.0218   33.7347 H   0  0  0  0  0  0  0  0  0  0  0  0
   -9.4567  -19.5865   33.5452 H   0  0  0  0  0  0  0  0  0  0  0  0
  -10.2833  -20.4576   32.2523 H   0  0  0  0  0  0  0  0  0  0  0  0
   -8.8156  -22.0231   33.5174 H   0  0  0  0  0  0  0  0  0  0  0  0
  -10.4208  -20.8913   35.8169 H   0  0  0  0  0  0  0  0  0  0  0  0
   -9.3680  -22.3152   35.9914 H   0  0  0  0  0  0  0  0  0  0  0  0
   -8.7280  -20.7111   35.5814 H   0  0  0  0  0  0  0  0  0  0  0  0
  -10.6100  -22.4297   31.4207 H   0  0  0  0  0  0  0  0  0  0  0  0
  -12.4005  -21.0800   32.1030 H   0  0  0  0  0  0  0  0  0  0  0  0
  -13.4757  -22.3753   32.3847 H   0  0  0  0  0  0  0  0  0  0  0  0
  -12.9701  -22.0328   30.7213 H   0  0  0  0  0  0  0  0  0  0  0  0
  -12.6080  -26.5104   29.7949 H   0  0  0  0  0  0  0  0  0  0  0  0
  -13.3430  -25.5829   28.5724 H   0  0  0  0  0  0  0  0  0  0  0  0
  -11.5922  -25.9014   27.1083 H   0  0  0  0  0  0  0  0  0  0  0  0
  -11.1833  -27.2466   28.1645 H   0  0  0  0  0  0  0  0  0  0  0  0
   -9.4733  -25.0973   27.9033 H   0  0  0  0  0  0  0  0  0  0  0  0
   -8.7806  -25.4313   30.2274 H   0  0  0  0  0  0  0  0  0  0  0  0
   -8.5050  -26.1983   32.0950 H   0  0  0  0  0  0  0  0  0  0  0  0
   -8.2610  -27.8860   31.5425 H   0  0  0  0  0  0  0  0  0  0  0  0
  -10.2740  -27.0017   33.5869 H   0  0  0  0  0  0  0  0  0  0  0  0
  -10.1623  -28.6293   32.8620 H   0  0  0  0  0  0  0  0  0  0  0  0
   -9.5221  -29.8286   35.3031 H   0  0  0  0  0  0  0  0  0  0  0  0
   -7.2456  -29.8076   36.4483 H   0  0  0  0  0  0  0  0  0  0  0  0
   -5.7047  -28.0429   35.4603 H   0  0  0  0  0  0  0  0  0  0  0  0
  -11.6679  -23.8169   28.0434 H   0  0  0  0  0  0  0  0  0  0  0  0
  -10.6301  -23.2608   29.2157 H   0  0  0  0  0  0  0  0  0  0  0  0
  1  2  1  0
  2  3  1  0
  2  4  1  0
  4  5  1  0
  5  6  1  0
  5  7  1  0
  7  8  2  0
  7  9  1  0
  9 10  1  0
 10 11  1  0
 11 12  1  0
 12 13  1  0
 13 14  1  0
 14 15  2  0
 14 16  1  0
 16 17  1  0
 17 18  1  0
 18 19  2  0
 19 20  1  0
 20 21  1  0
 21 22  2  0
 12 23  1  0
 23  9  1  0
 22 18  1  0
  1 24  1  0
  1 25  1  0
  1 26  1  0
  2 27  1  0
  3 28  1  0
  3 29  1  0
  3 30  1  0
  5 31  1  0
  6 32  1  0
  6 33  1  0
  6 34  1  0
 10 35  1  0
 10 36  1  0
 11 37  1  0
 11 38  1  0
 12 39  1  0
 13 40  1  0
 16 41  1  0
 16 42  1  0
 17 43  1  0
 17 44  1  0
 19 45  1  0
 20 46  1  0
 21 47  1  0
 23 48  1  0
 23 49  1  0
M  END
>  <Energy>  (1267) 
119.01100527106605

>  <compound_id>  (1267) 
46375

>  <target_id>  (1267) 
1

>  <reference_id>  (1267) 
115

>  <inspiration_ids>  (1267) 
[3, 115]

>  <energy_score>  (1267) 
58.15767665614078

>  <distance_score>  (1267) 
4.003709765105579

>  <path>  (1267) 
/opt/xchem-fragalysis-2/maxwin/BulkDock/SCRATCH/511020/C46375-P115/C46375-P115.minimised.mol

>  <scratch_subdir>  (1267) 
/opt/xchem-fragalysis-2/maxwin/BulkDock/SCRATCH/511020/C46375-P115

>  <fragmenstein_runtime>  (1267) 
10.692516803741455

>  <fragmenstein_outcome>  (1267) 
too moved

>  <fragmenstein_mode>  (1267) 
expansion

>  <fragmenstein_error>  (1267) 


$$$$
C18082-P3
     RDKit          3D

 47 48  0  0  0  0  0  0  0  0999 V2000
  -12.9463  -28.2861   33.1970 C   0  0  0  0  0  0  0  0  0  0  0  0
  -12.6963  -27.8734   31.7427 C   0  0  0  0  0  0  0  0  0  0  0  0
  -12.9832  -26.3835   31.6202 C   0  0  0  0  0  0  0  0  0  0  0  0
  -13.4631  -28.7232   30.8247 N   0  0  0  0  0  0  0  0  0  0  0  0
  -14.8719  -28.4006   30.6727 C   0  0  0  0  0  0  0  0  0  0  0  0
  -12.7820  -29.0297   29.5548 C   0  0  0  0  0  0  0  0  0  0  0  0
  -12.4548  -27.7975   28.6695 C   0  0  0  0  0  0  0  0  0  0  0  0
  -11.5037  -27.1195   28.9459 O   0  0  0  0  0  0  0  0  0  0  0  0
  -13.3721  -27.7227   27.5618 N   0  0  0  0  0  0  0  0  0  0  0  0
  -13.3782  -26.8739   26.3929 C   0  0  0  0  0  0  0  0  0  0  0  0
  -13.7885  -25.4004   26.5936 C   0  0  0  0  0  0  0  0  0  0  0  0
  -15.2864  -25.1391   26.4517 C   0  0  0  0  0  0  0  0  0  0  0  0
  -15.4726  -24.2236   27.5910 C   0  0  0  0  0  0  0  0  0  0  0  0
  -14.3316  -24.7834   28.3917 C   0  0  0  0  0  0  0  0  0  0  0  0
  -13.0001  -24.7113   27.6894 N   0  0  0  0  0  0  0  0  0  0  0  0
  -12.4741  -23.3882   27.7666 C   0  0  0  0  0  0  0  0  0  0  0  0
  -12.5992  -22.4558   27.0213 O   0  0  0  0  0  0  0  0  0  0  0  0
  -11.6665  -23.2572   28.9933 C   0  0  0  0  0  0  0  0  0  0  0  0
  -11.4230  -22.1084   29.6024 N   0  0  0  0  0  0  0  0  0  0  0  0
  -10.6190  -22.4011   30.6750 C   0  0  0  0  0  0  0  0  0  0  0  0
  -10.4070  -23.7534   30.7618 C   0  0  0  0  0  0  0  0  0  0  0  0
  -11.1134  -24.2890   29.7197 N   0  0  0  0  0  0  0  0  0  0  0  0
  -12.8844  -29.3700   33.3274 H   0  0  0  0  0  0  0  0  0  0  0  0
  -12.1982  -27.8323   33.8549 H   0  0  0  0  0  0  0  0  0  0  0  0
  -13.9365  -27.9754   33.5482 H   0  0  0  0  0  0  0  0  0  0  0  0
  -11.6345  -28.0486   31.5577 H   0  0  0  0  0  0  0  0  0  0  0  0
  -12.1905  -25.8327   32.1280 H   0  0  0  0  0  0  0  0  0  0  0  0
  -13.9434  -26.1086   32.0694 H   0  0  0  0  0  0  0  0  0  0  0  0
  -13.0067  -26.0426   30.5886 H   0  0  0  0  0  0  0  0  0  0  0  0
  -15.3700  -28.3351   31.6456 H   0  0  0  0  0  0  0  0  0  0  0  0
  -15.3884  -29.1928   30.1191 H   0  0  0  0  0  0  0  0  0  0  0  0
  -15.0372  -27.4606   30.1414 H   0  0  0  0  0  0  0  0  0  0  0  0
  -11.8287  -29.5299   29.7597 H   0  0  0  0  0  0  0  0  0  0  0  0
  -13.3573  -29.7749   28.9927 H   0  0  0  0  0  0  0  0  0  0  0  0
  -14.0068  -28.5111   27.6051 H   0  0  0  0  0  0  0  0  0  0  0  0
  -14.0135  -27.3467   25.6403 H   0  0  0  0  0  0  0  0  0  0  0  0
  -12.3493  -26.8798   26.0171 H   0  0  0  0  0  0  0  0  0  0  0  0
  -13.3804  -24.9057   25.6993 H   0  0  0  0  0  0  0  0  0  0  0  0
  -15.5587  -24.6828   25.4977 H   0  0  0  0  0  0  0  0  0  0  0  0
  -15.8727  -26.0581   26.5683 H   0  0  0  0  0  0  0  0  0  0  0  0
  -15.3198  -23.1802   27.3045 H   0  0  0  0  0  0  0  0  0  0  0  0
  -16.4431  -24.3298   28.0815 H   0  0  0  0  0  0  0  0  0  0  0  0
  -14.5286  -25.8042   28.7459 H   0  0  0  0  0  0  0  0  0  0  0  0
  -14.2475  -24.2137   29.3207 H   0  0  0  0  0  0  0  0  0  0  0  0
  -10.2500  -21.6240   31.3326 H   0  0  0  0  0  0  0  0  0  0  0  0
   -9.8294  -24.3572   31.4492 H   0  0  0  0  0  0  0  0  0  0  0  0
  -11.1670  -25.2682   29.4493 H   0  0  0  0  0  0  0  0  0  0  0  0
  1  2  1  0
  2  3  1  0
  2  4  1  0
  4  5  1  0
  4  6  1  0
  6  7  1  0
  7  8  2  0
  7  9  1  0
  9 10  1  0
 10 11  1  0
 11 12  1  0
 12 13  1  0
 13 14  1  0
 14 15  1  0
 15 16  1  0
 16 17  2  0
 16 18  1  0
 18 19  2  0
 19 20  1  0
 20 21  2  0
 21 22  1  0
 15 11  1  0
 22 18  1  0
  1 23  1  0
  1 24  1  0
  1 25  1  0
  2 26  1  0
  3 27  1  0
  3 28  1  0
  3 29  1  0
  5 30  1  0
  5 31  1  0
  5 32  1  0
  6 33  1  0
  6 34  1  0
  9 35  1  0
 10 36  1  0
 10 37  1  0
 11 38  1  0
 12 39  1  0
 12 40  1  0
 13 41  1  0
 13 42  1  0
 14 43  1  0
 14 44  1  0
 20 45  1  0
 21 46  1  0
 22 47  1  0
M  END
>  <Energy>  (1268) 
134.66130679381561

>  <compound_id>  (1268) 
18082

>  <target_id>  (1268) 
1

>  <reference_id>  (1268) 
3

>  <inspiration_ids>  (1268) 
[3, 115]

>  <energy_score>  (1268) 
18.181283910217758

>  <distance_score>  (1268) 
3.66849883975946

>  <path>  (1268) 
/opt/xchem-fragalysis-2/maxwin/BulkDock/SCRATCH/511020/C18082-P3/C18082-P3.minimised.mol

>  <scratch_subdir>  (1268) 
/opt/xchem-fragalysis-2/maxwin/BulkDock/SCRATCH/511020/C18082-P3

>  <fragmenstein_runtime>  (1268) 
21.226052284240723

>  <fragmenstein_outcome>  (1268) 
too moved

>  <fragmenstein_mode>  (1268) 
expansion

>  <fragmenstein_error>  (1268) 


$$$$
C18082-P115
     RDKit          3D

 47 48  0  0  0  0  0  0  0  0999 V2000
   -9.7431  -24.1935   34.0643 C   0  0  0  0  0  0  0  0  0  0  0  0
  -10.4157  -25.5709   34.1666 C   0  0  0  0  0  0  0  0  0  0  0  0
  -11.2401  -25.3637   35.4638 C   0  0  0  0  0  0  0  0  0  0  0  0
   -9.4206  -26.6724   34.0270 N   0  0  0  0  0  0  0  0  0  0  0  0
   -9.4689  -27.8260   34.9194 C   0  0  0  0  0  0  0  0  0  0  0  0
   -9.2679  -27.2516   32.6660 C   0  0  0  0  0  0  0  0  0  0  0  0
   -9.1916  -26.2617   31.5167 C   0  0  0  0  0  0  0  0  0  0  0  0
   -8.3738  -25.3942   31.5910 O   0  0  0  0  0  0  0  0  0  0  0  0
  -10.0984  -26.6114   30.4489 N   0  0  0  0  0  0  0  0  0  0  0  0
  -10.2326  -26.0831   29.1068 C   0  0  0  0  0  0  0  0  0  0  0  0
  -11.6222  -25.4489   28.7946 C   0  0  0  0  0  0  0  0  0  0  0  0
  -11.9900  -25.4407   27.3237 C   0  0  0  0  0  0  0  0  0  0  0  0
  -11.6170  -24.0516   26.9931 C   0  0  0  0  0  0  0  0  0  0  0  0
  -11.2141  -23.5585   28.3673 C   0  0  0  0  0  0  0  0  0  0  0  0
  -11.9407  -24.1867   29.5513 N   0  0  0  0  0  0  0  0  0  0  0  0
  -11.4264  -23.6874   30.7586 C   0  0  0  0  0  0  0  0  0  0  0  0
  -10.5445  -24.0908   31.4457 O   0  0  0  0  0  0  0  0  0  0  0  0
  -12.0311  -22.4979   31.3413 C   0  0  0  0  0  0  0  0  0  0  0  0
  -13.3126  -22.2097   31.4943 N   0  0  0  0  0  0  0  0  0  0  0  0
  -13.3520  -21.5006   32.6759 C   0  0  0  0  0  0  0  0  0  0  0  0
  -12.0939  -21.1803   33.1192 C   0  0  0  0  0  0  0  0  0  0  0  0
  -11.2637  -21.7376   32.2048 N   0  0  0  0  0  0  0  0  0  0  0  0
   -9.1451  -24.0319   33.1784 H   0  0  0  0  0  0  0  0  0  0  0  0
  -10.5007  -23.4058   34.0885 H   0  0  0  0  0  0  0  0  0  0  0  0
   -9.0956  -24.0013   34.9213 H   0  0  0  0  0  0  0  0  0  0  0  0
  -11.1486  -25.6764   33.3587 H   0  0  0  0  0  0  0  0  0  0  0  0
  -11.3971  -26.2532   36.0606 H   0  0  0  0  0  0  0  0  0  0  0  0
  -12.2258  -24.9748   35.1864 H   0  0  0  0  0  0  0  0  0  0  0  0
  -10.8254  -24.6103   36.1382 H   0  0  0  0  0  0  0  0  0  0  0  0
   -9.8283  -28.7414   34.4358 H   0  0  0  0  0  0  0  0  0  0  0  0
  -10.0909  -27.7019   35.7949 H   0  0  0  0  0  0  0  0  0  0  0  0
   -8.4533  -28.0665   35.2535 H   0  0  0  0  0  0  0  0  0  0  0  0
   -8.3198  -27.8052   32.6353 H   0  0  0  0  0  0  0  0  0  0  0  0
  -10.0304  -28.0027   32.4669 H   0  0  0  0  0  0  0  0  0  0  0  0
  -10.7069  -27.3505   30.7630 H   0  0  0  0  0  0  0  0  0  0  0  0
  -10.0822  -26.9155   28.4294 H   0  0  0  0  0  0  0  0  0  0  0  0
   -9.3983  -25.3973   28.9461 H   0  0  0  0  0  0  0  0  0  0  0  0
  -12.3268  -26.1624   29.2498 H   0  0  0  0  0  0  0  0  0  0  0  0
  -11.4505  -26.1854   26.7310 H   0  0  0  0  0  0  0  0  0  0  0  0
  -13.0606  -25.6112   27.1735 H   0  0  0  0  0  0  0  0  0  0  0  0
  -10.7850  -24.0138   26.2883 H   0  0  0  0  0  0  0  0  0  0  0  0
  -12.4489  -23.4969   26.5582 H   0  0  0  0  0  0  0  0  0  0  0  0
  -11.4349  -22.4822   28.4220 H   0  0  0  0  0  0  0  0  0  0  0  0
  -10.1256  -23.5929   28.4810 H   0  0  0  0  0  0  0  0  0  0  0  0
  -14.2896  -21.1995   33.1252 H   0  0  0  0  0  0  0  0  0  0  0  0
  -11.7154  -20.6231   33.9631 H   0  0  0  0  0  0  0  0  0  0  0  0
  -10.2722  -21.8796   32.3332 H   0  0  0  0  0  0  0  0  0  0  0  0
  1  2  1  0
  2  3  1  0
  2  4  1  0
  4  5  1  0
  4  6  1  0
  6  7  1  0
  7  8  2  0
  7  9  1  0
  9 10  1  0
 10 11  1  0
 11 12  1  0
 12 13  1  0
 13 14  1  0
 14 15  1  0
 15 16  1  0
 16 17  2  0
 16 18  1  0
 18 19  2  0
 19 20  1  0
 20 21  2  0
 21 22  1  0
 15 11  1  0
 22 18  1  0
  1 23  1  0
  1 24  1  0
  1 25  1  0
  2 26  1  0
  3 27  1  0
  3 28  1  0
  3 29  1  0
  5 30  1  0
  5 31  1  0
  5 32  1  0
  6 33  1  0
  6 34  1  0
  9 35  1  0
 10 36  1  0
 10 37  1  0
 11 38  1  0
 12 39  1  0
 12 40  1  0
 13 41  1  0
 13 42  1  0
 14 43  1  0
 14 44  1  0
 20 45  1  0
 21 46  1  0
 22 47  1  0
M  END
>  <Energy>  (1269) 
186.00451477761257

>  <compound_id>  (1269) 
18082

>  <target_id>  (1269) 
1

>  <reference_id>  (1269) 
115

>  <inspiration_ids>  (1269) 
[3, 115]

>  <energy_score>  (1269) 
69.52449189401807

>  <distance_score>  (1269) 
2.883929895885056

>  <path>  (1269) 
/opt/xchem-fragalysis-2/maxwin/BulkDock/SCRATCH/511020/C18082-P115/C18082-P115.minimised.mol

>  <scratch_subdir>  (1269) 
/opt/xchem-fragalysis-2/maxwin/BulkDock/SCRATCH/511020/C18082-P115

>  <fragmenstein_runtime>  (1269) 
18.79132604598999

>  <fragmenstein_outcome>  (1269) 
too moved

>  <fragmenstein_mode>  (1269) 
expansion

>  <fragmenstein_error>  (1269) 


$$$$
C18083-P3
     RDKit          3D

 50 51  0  0  0  0  0  0  0  0999 V2000
  -11.7839  -26.1644   32.0164 C   0  0  0  0  0  0  0  0  0  0  0  0
  -12.1249  -27.5298   31.4501 C   0  0  0  0  0  0  0  0  0  0  0  0
  -13.1946  -28.2024   32.3301 C   0  0  0  0  0  0  0  0  0  0  0  0
  -12.4505  -27.3578   30.0179 N   0  0  0  0  0  0  0  0  0  0  0  0
  -12.1708  -28.5969   29.2805 C   0  0  0  0  0  0  0  0  0  0  0  0
  -13.8818  -26.9788   29.8226 C   0  0  0  0  0  0  0  0  0  0  0  0
  -14.2171  -26.5965   28.3676 C   0  0  0  0  0  0  0  0  0  0  0  0
  -15.1772  -26.9716   27.8213 O   0  0  0  0  0  0  0  0  0  0  0  0
  -13.0837  -25.6699   27.8764 N   0  0  0  0  0  0  0  0  0  0  0  0
  -12.9434  -24.9392   26.6500 C   0  0  0  0  0  0  0  0  0  0  0  0
  -13.2088  -23.4068   26.8110 C   0  0  0  0  0  0  0  0  0  0  0  0
  -13.4620  -22.6632   25.5095 C   0  0  0  0  0  0  0  0  0  0  0  0
  -12.1649  -21.9621   25.3776 C   0  0  0  0  0  0  0  0  0  0  0  0
  -11.4556  -22.5936   26.5475 C   0  0  0  0  0  0  0  0  0  0  0  0
  -12.3209  -22.6111   27.7698 N   0  0  0  0  0  0  0  0  0  0  0  0
  -11.5366  -23.0582   28.9939 C   0  0  0  0  0  0  0  0  0  0  0  0
  -11.3687  -24.1331   29.4378 O   0  0  0  0  0  0  0  0  0  0  0  0
  -10.9630  -21.7621   29.5844 C   0  0  0  0  0  0  0  0  0  0  0  0
  -10.3041  -21.9932   30.8955 C   0  0  0  0  0  0  0  0  0  0  0  0
   -9.1803  -22.6508   31.0899 N   0  0  0  0  0  0  0  0  0  0  0  0
   -8.9111  -22.5439   32.4278 C   0  0  0  0  0  0  0  0  0  0  0  0
   -9.8651  -21.7801   33.0530 C   0  0  0  0  0  0  0  0  0  0  0  0
  -10.7367  -21.4154   32.0655 N   0  0  0  0  0  0  0  0  0  0  0  0
  -11.0529  -25.6190   31.4152 H   0  0  0  0  0  0  0  0  0  0  0  0
  -12.6949  -25.5733   32.0504 H   0  0  0  0  0  0  0  0  0  0  0  0
  -11.3866  -26.2690   33.0274 H   0  0  0  0  0  0  0  0  0  0  0  0
  -11.2661  -28.1887   31.5265 H   0  0  0  0  0  0  0  0  0  0  0  0
  -13.4884  -29.1764   31.9260 H   0  0  0  0  0  0  0  0  0  0  0  0
  -14.0933  -27.5864   32.4394 H   0  0  0  0  0  0  0  0  0  0  0  0
  -12.7970  -28.3742   33.3373 H   0  0  0  0  0  0  0  0  0  0  0  0
  -12.4284  -28.4924   28.2237 H   0  0  0  0  0  0  0  0  0  0  0  0
  -11.0999  -28.8218   29.3089 H   0  0  0  0  0  0  0  0  0  0  0  0
  -12.7204  -29.4570   29.6781 H   0  0  0  0  0  0  0  0  0  0  0  0
  -14.5527  -27.7998   30.1043 H   0  0  0  0  0  0  0  0  0  0  0  0
  -14.1397  -26.1005   30.4253 H   0  0  0  0  0  0  0  0  0  0  0  0
  -12.3480  -25.6166   28.5943 H   0  0  0  0  0  0  0  0  0  0  0  0
  -11.9573  -25.1905   26.2564 H   0  0  0  0  0  0  0  0  0  0  0  0
  -13.6829  -25.3515   25.9538 H   0  0  0  0  0  0  0  0  0  0  0  0
  -14.1731  -23.3867   27.3413 H   0  0  0  0  0  0  0  0  0  0  0  0
  -14.2825  -21.9448   25.5975 H   0  0  0  0  0  0  0  0  0  0  0  0
  -13.6872  -23.3255   24.6730 H   0  0  0  0  0  0  0  0  0  0  0  0
  -11.6570  -22.1400   24.4265 H   0  0  0  0  0  0  0  0  0  0  0  0
  -12.2905  -20.8824   25.5140 H   0  0  0  0  0  0  0  0  0  0  0  0
  -10.9364  -23.5362   26.3365 H   0  0  0  0  0  0  0  0  0  0  0  0
  -10.6193  -21.9480   26.8198 H   0  0  0  0  0  0  0  0  0  0  0  0
  -11.7585  -21.0185   29.6828 H   0  0  0  0  0  0  0  0  0  0  0  0
  -10.2183  -21.3631   28.8889 H   0  0  0  0  0  0  0  0  0  0  0  0
   -8.0406  -23.0201   32.8575 H   0  0  0  0  0  0  0  0  0  0  0  0
  -10.0127  -21.4860   34.0798 H   0  0  0  0  0  0  0  0  0  0  0  0
  -11.5683  -20.8497   32.1906 H   0  0  0  0  0  0  0  0  0  0  0  0
  1  2  1  0
  2  3  1  0
  2  4  1  0
  4  5  1  0
  4  6  1  0
  6  7  1  0
  7  8  2  0
  7  9  1  0
  9 10  1  0
 10 11  1  0
 11 12  1  0
 12 13  1  0
 13 14  1  0
 14 15  1  0
 15 16  1  0
 16 17  2  0
 16 18  1  0
 18 19  1  0
 19 20  2  0
 20 21  1  0
 21 22  2  0
 22 23  1  0
 15 11  1  0
 23 19  1  0
  1 24  1  0
  1 25  1  0
  1 26  1  0
  2 27  1  0
  3 28  1  0
  3 29  1  0
  3 30  1  0
  5 31  1  0
  5 32  1  0
  5 33  1  0
  6 34  1  0
  6 35  1  0
  9 36  1  0
 10 37  1  0
 10 38  1  0
 11 39  1  0
 12 40  1  0
 12 41  1  0
 13 42  1  0
 13 43  1  0
 14 44  1  0
 14 45  1  0
 18 46  1  0
 18 47  1  0
 21 48  1  0
 22 49  1  0
 23 50  1  0
M  END
>  <Energy>  (1270) 
144.8602729158456

>  <compound_id>  (1270) 
18083

>  <target_id>  (1270) 
1

>  <reference_id>  (1270) 
3

>  <inspiration_ids>  (1270) 
[3, 115]

>  <energy_score>  (1270) 
16.066665251965844

>  <distance_score>  (1270) 
1.9267254446260864

>  <path>  (1270) 
/opt/xchem-fragalysis-2/maxwin/BulkDock/SCRATCH/511020/C18083-P3/C18083-P3.minimised.mol

>  <scratch_subdir>  (1270) 
/opt/xchem-fragalysis-2/maxwin/BulkDock/SCRATCH/511020/C18083-P3

>  <fragmenstein_runtime>  (1270) 
11.23242473602295

>  <fragmenstein_outcome>  (1270) 
too moved

>  <fragmenstein_mode>  (1270) 
expansion

>  <fragmenstein_error>  (1270) 


$$$$
C18083-P115
     RDKit          3D

 50 51  0  0  0  0  0  0  0  0999 V2000
   -9.9497  -26.1470   34.4526 C   0  0  0  0  0  0  0  0  0  0  0  0
   -9.0182  -27.3076   34.1831 C   0  0  0  0  0  0  0  0  0  0  0  0
   -9.4316  -28.5820   34.9453 C   0  0  0  0  0  0  0  0  0  0  0  0
   -8.5964  -27.5067   32.7939 N   0  0  0  0  0  0  0  0  0  0  0  0
   -7.7138  -28.6955   32.7975 C   0  0  0  0  0  0  0  0  0  0  0  0
   -9.6197  -27.6614   31.7504 C   0  0  0  0  0  0  0  0  0  0  0  0
  -10.4682  -26.4243   31.2466 C   0  0  0  0  0  0  0  0  0  0  0  0
  -11.4680  -26.1435   31.8275 O   0  0  0  0  0  0  0  0  0  0  0  0
   -9.8899  -25.8628   30.0826 N   0  0  0  0  0  0  0  0  0  0  0  0
  -10.3625  -24.8611   29.1980 C   0  0  0  0  0  0  0  0  0  0  0  0
  -11.3862  -23.8129   29.7171 C   0  0  0  0  0  0  0  0  0  0  0  0
  -11.4466  -22.7147   28.6698 C   0  0  0  0  0  0  0  0  0  0  0  0
  -12.2023  -21.7985   29.5039 C   0  0  0  0  0  0  0  0  0  0  0  0
  -11.4773  -22.0771   30.7488 C   0  0  0  0  0  0  0  0  0  0  0  0
  -11.5288  -23.4538   31.2723 N   0  0  0  0  0  0  0  0  0  0  0  0
  -10.5996  -23.6004   32.3576 C   0  0  0  0  0  0  0  0  0  0  0  0
   -9.4486  -23.9447   32.3586 O   0  0  0  0  0  0  0  0  0  0  0  0
  -11.2806  -23.1210   33.6364 C   0  0  0  0  0  0  0  0  0  0  0  0
  -10.5225  -21.9631   34.2105 C   0  0  0  0  0  0  0  0  0  0  0  0
   -9.7302  -21.9877   35.2629 N   0  0  0  0  0  0  0  0  0  0  0  0
   -9.3815  -20.6880   35.5107 C   0  0  0  0  0  0  0  0  0  0  0  0
   -9.9442  -19.8509   34.5864 C   0  0  0  0  0  0  0  0  0  0  0  0
  -10.6567  -20.6710   33.7623 N   0  0  0  0  0  0  0  0  0  0  0  0
   -9.4039  -25.2068   34.3756 H   0  0  0  0  0  0  0  0  0  0  0  0
  -10.8046  -26.1189   33.8044 H   0  0  0  0  0  0  0  0  0  0  0  0
  -10.3842  -26.1852   35.4520 H   0  0  0  0  0  0  0  0  0  0  0  0
   -8.0790  -27.0088   34.6589 H   0  0  0  0  0  0  0  0  0  0  0  0
   -9.9765  -29.2822   34.3072 H   0  0  0  0  0  0  0  0  0  0  0  0
  -10.0465  -28.3635   35.8202 H   0  0  0  0  0  0  0  0  0  0  0  0
   -8.5482  -29.1151   35.3175 H   0  0  0  0  0  0  0  0  0  0  0  0
   -6.9096  -28.5973   33.5374 H   0  0  0  0  0  0  0  0  0  0  0  0
   -8.2463  -29.6303   33.0010 H   0  0  0  0  0  0  0  0  0  0  0  0
   -7.2277  -28.8302   31.8393 H   0  0  0  0  0  0  0  0  0  0  0  0
   -9.0765  -27.9686   30.8684 H   0  0  0  0  0  0  0  0  0  0  0  0
  -10.2662  -28.5070   31.9784 H   0  0  0  0  0  0  0  0  0  0  0  0
   -9.0926  -26.3980   29.8282 H   0  0  0  0  0  0  0  0  0  0  0  0
   -9.4749  -24.3851   28.7757 H   0  0  0  0  0  0  0  0  0  0  0  0
  -10.8161  -25.3942   28.3516 H   0  0  0  0  0  0  0  0  0  0  0  0
  -12.3202  -24.3833   29.6282 H   0  0  0  0  0  0  0  0  0  0  0  0
  -11.9229  -23.0096   27.7330 H   0  0  0  0  0  0  0  0  0  0  0  0
  -10.4637  -22.3103   28.4192 H   0  0  0  0  0  0  0  0  0  0  0  0
  -12.1921  -20.7729   29.1746 H   0  0  0  0  0  0  0  0  0  0  0  0
  -13.2008  -22.1238   29.7444 H   0  0  0  0  0  0  0  0  0  0  0  0
  -10.5078  -21.5927   30.8232 H   0  0  0  0  0  0  0  0  0  0  0  0
  -12.0356  -21.5285   31.5164 H   0  0  0  0  0  0  0  0  0  0  0  0
  -11.3382  -23.9360   34.3587 H   0  0  0  0  0  0  0  0  0  0  0  0
  -12.3120  -22.8165   33.4318 H   0  0  0  0  0  0  0  0  0  0  0  0
   -8.7438  -20.4251   36.3436 H   0  0  0  0  0  0  0  0  0  0  0  0
   -9.8998  -18.7800   34.4499 H   0  0  0  0  0  0  0  0  0  0  0  0
  -11.2244  -20.3586   32.9938 H   0  0  0  0  0  0  0  0  0  0  0  0
  1  2  1  0
  2  3  1  0
  2  4  1  0
  4  5  1  0
  4  6  1  0
  6  7  1  0
  7  8  2  0
  7  9  1  0
  9 10  1  0
 10 11  1  0
 11 12  1  0
 12 13  1  0
 13 14  1  0
 14 15  1  0
 15 16  1  0
 16 17  2  0
 16 18  1  0
 18 19  1  0
 19 20  2  0
 20 21  1  0
 21 22  2  0
 22 23  1  0
 15 11  1  0
 23 19  1  0
  1 24  1  0
  1 25  1  0
  1 26  1  0
  2 27  1  0
  3 28  1  0
  3 29  1  0
  3 30  1  0
  5 31  1  0
  5 32  1  0
  5 33  1  0
  6 34  1  0
  6 35  1  0
  9 36  1  0
 10 37  1  0
 10 38  1  0
 11 39  1  0
 12 40  1  0
 12 41  1  0
 13 42  1  0
 13 43  1  0
 14 44  1  0
 14 45  1  0
 18 46  1  0
 18 47  1  0
 21 48  1  0
 22 49  1  0
 23 50  1  0
M  END
>  <Energy>  (1271) 
180.62916281144174

>  <compound_id>  (1271) 
18083

>  <target_id>  (1271) 
1

>  <reference_id>  (1271) 
115

>  <inspiration_ids>  (1271) 
[3, 115]

>  <energy_score>  (1271) 
65.1514759118889

>  <distance_score>  (1271) 
3.0798730766321913

>  <path>  (1271) 
/opt/xchem-fragalysis-2/maxwin/BulkDock/SCRATCH/511020/C18083-P115/C18083-P115.minimised.mol

>  <scratch_subdir>  (1271) 
/opt/xchem-fragalysis-2/maxwin/BulkDock/SCRATCH/511020/C18083-P115

>  <fragmenstein_runtime>  (1271) 
13.677708864212036

>  <fragmenstein_outcome>  (1271) 
too moved

>  <fragmenstein_mode>  (1271) 
expansion

>  <fragmenstein_error>  (1271) 


$$$$
C18084-P3
     RDKit          3D

 52 53  0  0  0  0  0  0  0  0999 V2000
   -8.3151  -22.9851   32.5863 C   0  0  0  0  0  0  0  0  0  0  0  0
   -8.8111  -22.0106   31.5404 C   0  0  0  0  0  0  0  0  0  0  0  0
  -10.3354  -21.9956   31.3292 C   0  0  0  0  0  0  0  0  0  0  0  0
  -10.8464  -21.3538   32.6383 C   0  0  0  0  0  0  0  0  0  0  0  0
  -10.6579  -23.4653   31.0250 C   0  0  0  0  0  0  0  0  0  0  0  0
  -10.9976  -21.1606   30.1672 C   0  0  0  0  0  0  0  0  0  0  0  0
  -10.9440  -19.7510   30.3931 O   0  0  0  0  0  0  0  0  0  0  0  0
  -10.4966  -21.5420   28.7586 C   0  0  0  0  0  0  0  0  0  0  0  0
   -9.3859  -21.1911   28.4847 O   0  0  0  0  0  0  0  0  0  0  0  0
  -11.4173  -22.3444   28.0293 N   0  0  0  0  0  0  0  0  0  0  0  0
  -11.2528  -23.0986   26.7373 C   0  0  0  0  0  0  0  0  0  0  0  0
  -12.3894  -23.1679   25.7514 C   0  0  0  0  0  0  0  0  0  0  0  0
  -13.3418  -22.2694   26.4031 C   0  0  0  0  0  0  0  0  0  0  0  0
  -14.2350  -23.0983   27.1785 N   0  0  0  0  0  0  0  0  0  0  0  0
  -15.3610  -23.8879   26.7853 C   0  0  0  0  0  0  0  0  0  0  0  0
  -15.9032  -24.0036   25.7231 O   0  0  0  0  0  0  0  0  0  0  0  0
  -15.8507  -24.7209   27.9662 C   0  0  0  0  0  0  0  0  0  0  0  0
  -15.2618  -26.1263   27.9168 C   0  0  0  0  0  0  0  0  0  0  0  0
  -13.8845  -26.2484   28.4964 C   0  0  0  0  0  0  0  0  0  0  0  0
  -13.3729  -25.5897   29.5201 N   0  0  0  0  0  0  0  0  0  0  0  0
  -12.1798  -26.2150   29.7862 C   0  0  0  0  0  0  0  0  0  0  0  0
  -11.9200  -27.2016   28.8722 C   0  0  0  0  0  0  0  0  0  0  0  0
  -13.0033  -27.2061   28.0445 N   0  0  0  0  0  0  0  0  0  0  0  0
  -12.2863  -21.4783   27.1568 C   0  0  0  0  0  0  0  0  0  0  0  0
   -8.2642  -24.0052   32.1958 H   0  0  0  0  0  0  0  0  0  0  0  0
   -8.9585  -22.9680   33.4660 H   0  0  0  0  0  0  0  0  0  0  0  0
   -7.3164  -22.6936   32.9166 H   0  0  0  0  0  0  0  0  0  0  0  0
   -8.2912  -22.2352   30.6130 H   0  0  0  0  0  0  0  0  0  0  0  0
   -8.4928  -21.0502   31.9347 H   0  0  0  0  0  0  0  0  0  0  0  0
  -11.8246  -20.9000   32.5228 H   0  0  0  0  0  0  0  0  0  0  0  0
  -10.8411  -22.0396   33.4810 H   0  0  0  0  0  0  0  0  0  0  0  0
  -10.2222  -20.5022   32.9398 H   0  0  0  0  0  0  0  0  0  0  0  0
   -9.9576  -23.8594   30.2802 H   0  0  0  0  0  0  0  0  0  0  0  0
  -11.6301  -23.5958   30.5644 H   0  0  0  0  0  0  0  0  0  0  0  0
  -10.5595  -24.1234   31.8857 H   0  0  0  0  0  0  0  0  0  0  0  0
  -12.0551  -21.3891   30.1866 H   0  0  0  0  0  0  0  0  0  0  0  0
  -11.7907  -19.3852   30.0811 H   0  0  0  0  0  0  0  0  0  0  0  0
  -10.3333  -22.7559   26.2454 H   0  0  0  0  0  0  0  0  0  0  0  0
  -11.0334  -24.1237   27.0575 H   0  0  0  0  0  0  0  0  0  0  0  0
  -12.0727  -22.7622   24.7847 H   0  0  0  0  0  0  0  0  0  0  0  0
  -12.7726  -24.1862   25.6479 H   0  0  0  0  0  0  0  0  0  0  0  0
  -13.9235  -21.6845   25.6858 H   0  0  0  0  0  0  0  0  0  0  0  0
  -14.0003  -23.3141   28.1450 H   0  0  0  0  0  0  0  0  0  0  0  0
  -16.9425  -24.7809   27.8695 H   0  0  0  0  0  0  0  0  0  0  0  0
  -15.6610  -24.2221   28.9225 H   0  0  0  0  0  0  0  0  0  0  0  0
  -15.2618  -26.5006   26.8852 H   0  0  0  0  0  0  0  0  0  0  0  0
  -15.9132  -26.7937   28.4952 H   0  0  0  0  0  0  0  0  0  0  0  0
  -11.5682  -25.9423   30.6334 H   0  0  0  0  0  0  0  0  0  0  0  0
  -11.1060  -27.9035   28.7640 H   0  0  0  0  0  0  0  0  0  0  0  0
  -13.1656  -27.8568   27.2854 H   0  0  0  0  0  0  0  0  0  0  0  0
  -12.7426  -20.7397   27.8128 H   0  0  0  0  0  0  0  0  0  0  0  0
  -11.6813  -20.8458   26.4918 H   0  0  0  0  0  0  0  0  0  0  0  0
  1  2  1  0
  2  3  1  0
  3  4  1  0
  3  5  1  0
  3  6  1  0
  6  7  1  0
  6  8  1  0
  8  9  2  0
  8 10  1  0
 10 11  1  0
 11 12  1  0
 12 13  1  0
 13 14  1  0
 14 15  1  0
 15 16  2  0
 15 17  1  0
 17 18  1  0
 18 19  1  0
 19 20  2  0
 20 21  1  0
 21 22  2  0
 22 23  1  0
 13 24  1  0
 24 10  1  0
 23 19  1  0
  1 25  1  0
  1 26  1  0
  1 27  1  0
  2 28  1  0
  2 29  1  0
  4 30  1  0
  4 31  1  0
  4 32  1  0
  5 33  1  0
  5 34  1  0
  5 35  1  0
  6 36  1  0
  7 37  1  0
 11 38  1  0
 11 39  1  0
 12 40  1  0
 12 41  1  0
 13 42  1  0
 14 43  1  0
 17 44  1  0
 17 45  1  0
 18 46  1  0
 18 47  1  0
 21 48  1  0
 22 49  1  0
 23 50  1  0
 24 51  1  0
 24 52  1  0
M  END
>  <Energy>  (1272) 
119.36171349662337

>  <compound_id>  (1272) 
18084

>  <target_id>  (1272) 
1

>  <reference_id>  (1272) 
3

>  <inspiration_ids>  (1272) 
[3, 115]

>  <energy_score>  (1272) 
37.09935816769139

>  <distance_score>  (1272) 
2.4520764180311083

>  <path>  (1272) 
/opt/xchem-fragalysis-2/maxwin/BulkDock/SCRATCH/511020/C18084-P3/C18084-P3.minimised.mol

>  <scratch_subdir>  (1272) 
/opt/xchem-fragalysis-2/maxwin/BulkDock/SCRATCH/511020/C18084-P3

>  <fragmenstein_runtime>  (1272) 
19.945836067199707

>  <fragmenstein_outcome>  (1272) 
too moved

>  <fragmenstein_mode>  (1272) 
expansion

>  <fragmenstein_error>  (1272) 


$$$$
C18084-P115
     RDKit          3D

 52 53  0  0  0  0  0  0  0  0999 V2000
  -10.7901  -23.7841   33.6856 C   0  0  0  0  0  0  0  0  0  0  0  0
  -11.0378  -23.7157   32.1750 C   0  0  0  0  0  0  0  0  0  0  0  0
  -11.6472  -22.4219   31.5752 C   0  0  0  0  0  0  0  0  0  0  0  0
  -10.7157  -21.2615   31.8834 C   0  0  0  0  0  0  0  0  0  0  0  0
  -12.9272  -22.0547   32.3650 C   0  0  0  0  0  0  0  0  0  0  0  0
  -12.0107  -22.5940   30.0004 C   0  0  0  0  0  0  0  0  0  0  0  0
  -12.5608  -21.3374   29.5725 O   0  0  0  0  0  0  0  0  0  0  0  0
  -11.0472  -22.7843   28.7582 C   0  0  0  0  0  0  0  0  0  0  0  0
  -10.2497  -21.8981   28.6569 O   0  0  0  0  0  0  0  0  0  0  0  0
  -11.1856  -23.9755   28.0199 N   0  0  0  0  0  0  0  0  0  0  0  0
  -10.3207  -24.5751   26.9449 C   0  0  0  0  0  0  0  0  0  0  0  0
  -10.9962  -25.0674   25.6360 C   0  0  0  0  0  0  0  0  0  0  0  0
  -12.3764  -25.0668   26.1513 C   0  0  0  0  0  0  0  0  0  0  0  0
  -12.4128  -26.2473   26.9964 N   0  0  0  0  0  0  0  0  0  0  0  0
  -13.4945  -26.9482   27.5645 C   0  0  0  0  0  0  0  0  0  0  0  0
  -14.6649  -26.7122   27.5664 O   0  0  0  0  0  0  0  0  0  0  0  0
  -12.9121  -28.1180   28.3463 C   0  0  0  0  0  0  0  0  0  0  0  0
  -12.6141  -27.6292   29.6966 C   0  0  0  0  0  0  0  0  0  0  0  0
  -11.2808  -27.1647   30.1003 C   0  0  0  0  0  0  0  0  0  0  0  0
  -10.5320  -27.7004   31.0361 N   0  0  0  0  0  0  0  0  0  0  0  0
   -9.5322  -26.8260   31.2854 C   0  0  0  0  0  0  0  0  0  0  0  0
   -9.5938  -25.8103   30.3744 C   0  0  0  0  0  0  0  0  0  0  0  0
  -10.7638  -25.9806   29.7173 N   0  0  0  0  0  0  0  0  0  0  0  0
  -12.0901  -23.7636   26.8575 C   0  0  0  0  0  0  0  0  0  0  0  0
  -10.1465  -24.6423   33.9100 H   0  0  0  0  0  0  0  0  0  0  0  0
  -11.7172  -23.9405   34.2427 H   0  0  0  0  0  0  0  0  0  0  0  0
  -10.2970  -22.8925   34.0791 H   0  0  0  0  0  0  0  0  0  0  0  0
  -11.6552  -24.5741   31.9044 H   0  0  0  0  0  0  0  0  0  0  0  0
  -10.0617  -23.8588   31.7306 H   0  0  0  0  0  0  0  0  0  0  0  0
  -10.4181  -20.8421   30.9409 H   0  0  0  0  0  0  0  0  0  0  0  0
  -11.1450  -20.4591   32.4834 H   0  0  0  0  0  0  0  0  0  0  0  0
   -9.8456  -21.5388   32.4740 H   0  0  0  0  0  0  0  0  0  0  0  0
  -13.8175  -21.9796   31.7384 H   0  0  0  0  0  0  0  0  0  0  0  0
  -12.8851  -21.1173   32.9234 H   0  0  0  0  0  0  0  0  0  0  0  0
  -13.0812  -22.7773   33.1507 H   0  0  0  0  0  0  0  0  0  0  0  0
  -12.7494  -23.3782   29.9647 H   0  0  0  0  0  0  0  0  0  0  0  0
  -11.8421  -20.8629   29.0895 H   0  0  0  0  0  0  0  0  0  0  0  0
   -9.8651  -25.4484   27.4266 H   0  0  0  0  0  0  0  0  0  0  0  0
   -9.4776  -23.9195   26.7962 H   0  0  0  0  0  0  0  0  0  0  0  0
  -10.8230  -24.3576   24.8210 H   0  0  0  0  0  0  0  0  0  0  0  0
  -10.6856  -26.0619   25.3023 H   0  0  0  0  0  0  0  0  0  0  0  0
  -13.1777  -25.0541   25.4126 H   0  0  0  0  0  0  0  0  0  0  0  0
  -11.5660  -26.7900   27.1237 H   0  0  0  0  0  0  0  0  0  0  0  0
  -12.0265  -28.5577   27.8936 H   0  0  0  0  0  0  0  0  0  0  0  0
  -13.6961  -28.8842   28.4172 H   0  0  0  0  0  0  0  0  0  0  0  0
  -12.8806  -28.4678   30.3440 H   0  0  0  0  0  0  0  0  0  0  0  0
  -13.2603  -26.7649   29.7919 H   0  0  0  0  0  0  0  0  0  0  0  0
   -8.7932  -27.0071   32.0552 H   0  0  0  0  0  0  0  0  0  0  0  0
   -8.9524  -24.9778   30.1842 H   0  0  0  0  0  0  0  0  0  0  0  0
  -11.2066  -25.3226   29.0894 H   0  0  0  0  0  0  0  0  0  0  0  0
  -11.6647  -22.9876   26.1955 H   0  0  0  0  0  0  0  0  0  0  0  0
  -12.9479  -23.1870   27.0759 H   0  0  0  0  0  0  0  0  0  0  0  0
  1  2  1  0
  2  3  1  0
  3  4  1  0
  3  5  1  0
  3  6  1  0
  6  7  1  0
  6  8  1  0
  8  9  2  0
  8 10  1  0
 10 11  1  0
 11 12  1  0
 12 13  1  0
 13 14  1  0
 14 15  1  0
 15 16  2  0
 15 17  1  0
 17 18  1  0
 18 19  1  0
 19 20  2  0
 20 21  1  0
 21 22  2  0
 22 23  1  0
 13 24  1  0
 24 10  1  0
 23 19  1  0
  1 25  1  0
  1 26  1  0
  1 27  1  0
  2 28  1  0
  2 29  1  0
  4 30  1  0
  4 31  1  0
  4 32  1  0
  5 33  1  0
  5 34  1  0
  5 35  1  0
  6 36  1  0
  7 37  1  0
 11 38  1  0
 11 39  1  0
 12 40  1  0
 12 41  1  0
 13 42  1  0
 14 43  1  0
 17 44  1  0
 17 45  1  0
 18 46  1  0
 18 47  1  0
 21 48  1  0
 22 49  1  0
 23 50  1  0
 24 51  1  0
 24 52  1  0
M  END
>  <Energy>  (1273) 
169.10581152351656

>  <compound_id>  (1273) 
18084

>  <target_id>  (1273) 
1

>  <reference_id>  (1273) 
115

>  <inspiration_ids>  (1273) 
[3, 115]

>  <energy_score>  (1273) 
86.84345619459054

>  <distance_score>  (1273) 
2.249299251309803

>  <path>  (1273) 
/opt/xchem-fragalysis-2/maxwin/BulkDock/SCRATCH/511020/C18084-P115/C18084-P115.minimised.mol

>  <scratch_subdir>  (1273) 
/opt/xchem-fragalysis-2/maxwin/BulkDock/SCRATCH/511020/C18084-P115

>  <fragmenstein_runtime>  (1273) 
11.97822380065918

>  <fragmenstein_outcome>  (1273) 
too moved

>  <fragmenstein_mode>  (1273) 
expansion

>  <fragmenstein_error>  (1273) 


$$$$
C18085-P3
     RDKit          3D

 47 48  0  0  0  0  0  0  0  0999 V2000
  -13.8080  -29.0360   29.3778 C   0  0  0  0  0  0  0  0  0  0  0  0
  -15.1593  -28.4079   29.1422 N   0  0  0  0  0  0  0  0  0  0  0  0
  -15.3573  -29.6637   28.3188 C   0  0  0  0  0  0  0  0  0  0  0  0
  -14.9861  -29.4790   26.8305 C   0  0  0  0  0  0  0  0  0  0  0  0
  -14.9773  -28.0793   26.4722 N   0  0  0  0  0  0  0  0  0  0  0  0
  -14.3474  -27.3940   25.3952 C   0  0  0  0  0  0  0  0  0  0  0  0
  -13.7252  -27.8096   24.4601 O   0  0  0  0  0  0  0  0  0  0  0  0
  -14.6052  -25.8751   25.5272 C   0  0  0  0  0  0  0  0  0  0  0  0
  -14.1510  -25.3603   26.8396 N   0  0  0  0  0  0  0  0  0  0  0  0
  -12.6766  -25.4073   26.9691 C   0  0  0  0  0  0  0  0  0  0  0  0
  -12.1626  -23.9715   26.9680 C   0  0  0  0  0  0  0  0  0  0  0  0
  -13.3305  -23.1518   26.4699 C   0  0  0  0  0  0  0  0  0  0  0  0
  -14.5195  -23.9402   26.9795 C   0  0  0  0  0  0  0  0  0  0  0  0
  -15.7341  -28.0081   30.3786 C   0  0  0  0  0  0  0  0  0  0  0  0
  -16.4568  -28.6028   31.1336 O   0  0  0  0  0  0  0  0  0  0  0  0
  -15.3708  -26.5458   30.6127 C   0  0  0  0  0  0  0  0  0  0  0  0
  -15.1581  -26.2721   32.0899 C   0  0  0  0  0  0  0  0  0  0  0  0
  -13.9896  -27.0391   32.6117 C   0  0  0  0  0  0  0  0  0  0  0  0
  -12.7135  -26.7226   32.5262 N   0  0  0  0  0  0  0  0  0  0  0  0
  -12.0548  -27.7018   33.2240 C   0  0  0  0  0  0  0  0  0  0  0  0
  -12.9305  -28.6546   33.6793 C   0  0  0  0  0  0  0  0  0  0  0  0
  -14.1567  -28.2372   33.2596 N   0  0  0  0  0  0  0  0  0  0  0  0
  -13.2327  -28.2820   29.9344 H   0  0  0  0  0  0  0  0  0  0  0  0
  -13.1843  -29.2066   28.4918 H   0  0  0  0  0  0  0  0  0  0  0  0
  -13.8393  -29.8879   30.0756 H   0  0  0  0  0  0  0  0  0  0  0  0
  -16.4585  -29.7255   28.3150 H   0  0  0  0  0  0  0  0  0  0  0  0
  -15.1104  -30.6491   28.7497 H   0  0  0  0  0  0  0  0  0  0  0  0
  -15.7033  -29.9942   26.1832 H   0  0  0  0  0  0  0  0  0  0  0  0
  -13.9989  -29.8924   26.6046 H   0  0  0  0  0  0  0  0  0  0  0  0
  -15.3446  -27.3925   27.1331 H   0  0  0  0  0  0  0  0  0  0  0  0
  -14.1128  -25.3557   24.7024 H   0  0  0  0  0  0  0  0  0  0  0  0
  -15.6873  -25.7311   25.4141 H   0  0  0  0  0  0  0  0  0  0  0  0
  -12.1938  -25.9817   26.1702 H   0  0  0  0  0  0  0  0  0  0  0  0
  -12.4118  -25.8983   27.9125 H   0  0  0  0  0  0  0  0  0  0  0  0
  -11.9029  -23.6679   27.9894 H   0  0  0  0  0  0  0  0  0  0  0  0
  -11.2769  -23.8432   26.3392 H   0  0  0  0  0  0  0  0  0  0  0  0
  -13.3034  -22.1261   26.8458 H   0  0  0  0  0  0  0  0  0  0  0  0
  -13.3329  -23.1121   25.3747 H   0  0  0  0  0  0  0  0  0  0  0  0
  -14.6772  -23.7541   28.0453 H   0  0  0  0  0  0  0  0  0  0  0  0
  -15.4503  -23.6709   26.4684 H   0  0  0  0  0  0  0  0  0  0  0  0
  -14.4784  -26.2634   30.0414 H   0  0  0  0  0  0  0  0  0  0  0  0
  -16.2025  -25.9389   30.2362 H   0  0  0  0  0  0  0  0  0  0  0  0
  -16.0587  -26.5175   32.6659 H   0  0  0  0  0  0  0  0  0  0  0  0
  -14.9822  -25.2025   32.2357 H   0  0  0  0  0  0  0  0  0  0  0  0
  -10.9874  -27.6718   33.3949 H   0  0  0  0  0  0  0  0  0  0  0  0
  -12.7912  -29.5553   34.2597 H   0  0  0  0  0  0  0  0  0  0  0  0
  -15.0449  -28.7050   33.4010 H   0  0  0  0  0  0  0  0  0  0  0  0
  1  2  1  0
  2  3  1  0
  3  4  1  0
  4  5  1  0
  5  6  1  0
  6  7  2  0
  6  8  1  0
  8  9  1  0
  9 10  1  0
 10 11  1  0
 11 12  1  0
 12 13  1  0
  2 14  1  0
 14 15  2  0
 14 16  1  0
 16 17  1  0
 17 18  1  0
 18 19  2  0
 19 20  1  0
 20 21  2  0
 21 22  1  0
 13  9  1  0
 22 18  1  0
  1 23  1  0
  1 24  1  0
  1 25  1  0
  3 26  1  0
  3 27  1  0
  4 28  1  0
  4 29  1  0
  5 30  1  0
  8 31  1  0
  8 32  1  0
 10 33  1  0
 10 34  1  0
 11 35  1  0
 11 36  1  0
 12 37  1  0
 12 38  1  0
 13 39  1  0
 13 40  1  0
 16 41  1  0
 16 42  1  0
 17 43  1  0
 17 44  1  0
 20 45  1  0
 21 46  1  0
 22 47  1  0
M  END
>  <Energy>  (1274) 
89.49506064579171

>  <compound_id>  (1274) 
18085

>  <target_id>  (1274) 
1

>  <reference_id>  (1274) 
3

>  <inspiration_ids>  (1274) 
[3, 115]

>  <energy_score>  (1274) 
29.161809258326258

>  <distance_score>  (1274) 
6.6494157875661974

>  <path>  (1274) 
/opt/xchem-fragalysis-2/maxwin/BulkDock/SCRATCH/511020/C18085-P3/C18085-P3.minimised.mol

>  <scratch_subdir>  (1274) 
/opt/xchem-fragalysis-2/maxwin/BulkDock/SCRATCH/511020/C18085-P3

>  <fragmenstein_runtime>  (1274) 
12.287060737609863

>  <fragmenstein_outcome>  (1274) 
too moved

>  <fragmenstein_mode>  (1274) 
expansion

>  <fragmenstein_error>  (1274) 


$$$$
C18085-P115
     RDKit          3D

 47 48  0  0  0  0  0  0  0  0999 V2000
   -9.6705  -23.3988   34.7920 C   0  0  0  0  0  0  0  0  0  0  0  0
  -10.1550  -22.5610   33.6550 N   0  0  0  0  0  0  0  0  0  0  0  0
   -8.8056  -22.6653   33.2900 C   0  0  0  0  0  0  0  0  0  0  0  0
   -8.6140  -24.2278   32.3837 C   0  0  0  0  0  0  0  0  0  0  0  0
   -9.6176  -24.7828   31.4839 N   0  0  0  0  0  0  0  0  0  0  0  0
   -9.5207  -25.2582   30.1461 C   0  0  0  0  0  0  0  0  0  0  0  0
   -8.6032  -25.2537   29.3802 O   0  0  0  0  0  0  0  0  0  0  0  0
  -10.8394  -25.9347   29.6872 C   0  0  0  0  0  0  0  0  0  0  0  0
  -11.5546  -25.2393   28.5963 N   0  0  0  0  0  0  0  0  0  0  0  0
  -12.3331  -26.1699   27.7761 C   0  0  0  0  0  0  0  0  0  0  0  0
  -12.4851  -25.5102   26.4088 C   0  0  0  0  0  0  0  0  0  0  0  0
  -11.6425  -24.2543   26.4755 C   0  0  0  0  0  0  0  0  0  0  0  0
  -10.7269  -24.4894   27.6596 C   0  0  0  0  0  0  0  0  0  0  0  0
  -11.3009  -23.1158   33.0682 C   0  0  0  0  0  0  0  0  0  0  0  0
  -11.4232  -23.8864   32.1616 O   0  0  0  0  0  0  0  0  0  0  0  0
  -12.4985  -22.8228   33.6831 C   0  0  0  0  0  0  0  0  0  0  0  0
  -12.3611  -24.2501   34.6200 C   0  0  0  0  0  0  0  0  0  0  0  0
  -11.3344  -25.4073   34.3241 C   0  0  0  0  0  0  0  0  0  0  0  0
  -10.9680  -26.0029   33.2017 N   0  0  0  0  0  0  0  0  0  0  0  0
  -10.0266  -26.9653   33.4970 C   0  0  0  0  0  0  0  0  0  0  0  0
   -9.9184  -27.0794   34.8477 C   0  0  0  0  0  0  0  0  0  0  0  0
  -10.7378  -26.0975   35.3579 N   0  0  0  0  0  0  0  0  0  0  0  0
   -9.0261  -22.7770   35.4432 H   0  0  0  0  0  0  0  0  0  0  0  0
   -9.2208  -24.3728   34.6987 H   0  0  0  0  0  0  0  0  0  0  0  0
  -10.4528  -23.4484   35.5381 H   0  0  0  0  0  0  0  0  0  0  0  0
   -7.9814  -22.5633   33.9547 H   0  0  0  0  0  0  0  0  0  0  0  0
   -8.7055  -21.6537   32.8762 H   0  0  0  0  0  0  0  0  0  0  0  0
   -8.7129  -24.9982   33.1365 H   0  0  0  0  0  0  0  0  0  0  0  0
   -7.5967  -24.4591   32.1631 H   0  0  0  0  0  0  0  0  0  0  0  0
  -10.5387  -25.0311   31.8603 H   0  0  0  0  0  0  0  0  0  0  0  0
  -10.5313  -26.9378   29.3752 H   0  0  0  0  0  0  0  0  0  0  0  0
  -11.5340  -26.0822   30.5176 H   0  0  0  0  0  0  0  0  0  0  0  0
  -13.3053  -26.3774   28.2340 H   0  0  0  0  0  0  0  0  0  0  0  0
  -11.8166  -27.1272   27.6426 H   0  0  0  0  0  0  0  0  0  0  0  0
  -12.1000  -26.1714   25.6247 H   0  0  0  0  0  0  0  0  0  0  0  0
  -13.5260  -25.2813   26.1648 H   0  0  0  0  0  0  0  0  0  0  0  0
  -11.0921  -24.1013   25.5440 H   0  0  0  0  0  0  0  0  0  0  0  0
  -12.2701  -23.3772   26.6455 H   0  0  0  0  0  0  0  0  0  0  0  0
   -9.8787  -25.0885   27.3328 H   0  0  0  0  0  0  0  0  0  0  0  0
  -10.3713  -23.5439   28.0768 H   0  0  0  0  0  0  0  0  0  0  0  0
  -13.2391  -22.7521   32.8980 H   0  0  0  0  0  0  0  0  0  0  0  0
  -12.3177  -21.8141   34.0585 H   0  0  0  0  0  0  0  0  0  0  0  0
  -13.2631  -24.8092   34.7093 H   0  0  0  0  0  0  0  0  0  0  0  0
  -12.1990  -23.9788   35.6676 H   0  0  0  0  0  0  0  0  0  0  0  0
   -9.5419  -27.5448   32.7212 H   0  0  0  0  0  0  0  0  0  0  0  0
   -9.3821  -27.7872   35.4604 H   0  0  0  0  0  0  0  0  0  0  0  0
  -10.9903  -25.9351   36.3193 H   0  0  0  0  0  0  0  0  0  0  0  0
  1  2  1  0
  2  3  1  0
  3  4  1  0
  4  5  1  0
  5  6  1  0
  6  7  2  0
  6  8  1  0
  8  9  1  0
  9 10  1  0
 10 11  1  0
 11 12  1  0
 12 13  1  0
  2 14  1  0
 14 15  2  0
 14 16  1  0
 16 17  1  0
 17 18  1  0
 18 19  2  0
 19 20  1  0
 20 21  2  0
 21 22  1  0
 13  9  1  0
 22 18  1  0
  1 23  1  0
  1 24  1  0
  1 25  1  0
  3 26  1  0
  3 27  1  0
  4 28  1  0
  4 29  1  0
  5 30  1  0
  8 31  1  0
  8 32  1  0
 10 33  1  0
 10 34  1  0
 11 35  1  0
 11 36  1  0
 12 37  1  0
 12 38  1  0
 13 39  1  0
 13 40  1  0
 16 41  1  0
 16 42  1  0
 17 43  1  0
 17 44  1  0
 20 45  1  0
 21 46  1  0
 22 47  1  0
M  END
>  <Energy>  (1275) 
265.63097412310361

>  <compound_id>  (1275) 
18085

>  <target_id>  (1275) 
1

>  <reference_id>  (1275) 
115

>  <inspiration_ids>  (1275) 
[3, 115]

>  <energy_score>  (1275) 
205.2977227356484

>  <distance_score>  (1275) 
3.3377954413628768

>  <path>  (1275) 
/opt/xchem-fragalysis-2/maxwin/BulkDock/SCRATCH/511020/C18085-P115/C18085-P115.minimised.mol

>  <scratch_subdir>  (1275) 
/opt/xchem-fragalysis-2/maxwin/BulkDock/SCRATCH/511020/C18085-P115

>  <fragmenstein_runtime>  (1275) 
9.75214147567749

>  <fragmenstein_outcome>  (1275) 
too moved

>  <fragmenstein_mode>  (1275) 
expansion

>  <fragmenstein_error>  (1275) 


$$$$
C18086-P3
     RDKit          3D

 43 44  0  0  0  0  0  0  0  0999 V2000
  -13.3804  -27.8865   30.9164 C   0  0  0  0  0  0  0  0  0  0  0  0
  -13.6517  -28.8173   29.7403 C   0  0  0  0  0  0  0  0  0  0  0  0
  -12.3480  -29.4010   29.2233 C   0  0  0  0  0  0  0  0  0  0  0  0
  -14.6173  -28.0442   28.4234 S   0  0  0  0  0  0  0  0  0  0  0  0
  -14.5342  -28.8741   27.2385 O   0  0  0  0  0  0  0  0  0  0  0  0
  -15.9201  -27.7074   28.9672 O   0  0  0  0  0  0  0  0  0  0  0  0
  -13.7565  -26.5503   28.1026 C   0  0  0  0  0  0  0  0  0  0  0  0
  -13.8341  -25.9588   26.7512 C   0  0  0  0  0  0  0  0  0  0  0  0
  -13.8019  -24.4790   27.1513 C   0  0  0  0  0  0  0  0  0  0  0  0
  -13.5088  -24.1909   28.6483 N   0  0  0  0  0  0  0  0  0  0  0  0
  -12.0665  -24.0060   28.8631 C   0  0  0  0  0  0  0  0  0  0  0  0
  -11.2336  -24.7943   29.1365 O   0  0  0  0  0  0  0  0  0  0  0  0
  -11.9802  -22.5320   28.7401 N   0  0  0  0  0  0  0  0  0  0  0  0
  -11.6432  -22.1398   27.3157 C   0  0  0  0  0  0  0  0  0  0  0  0
  -10.8515  -21.6008   29.0321 C   0  0  0  0  0  0  0  0  0  0  0  0
  -10.5643  -21.7284   30.5133 C   0  0  0  0  0  0  0  0  0  0  0  0
  -10.7820  -20.8055   31.4283 N   0  0  0  0  0  0  0  0  0  0  0  0
  -10.2917  -21.3146   32.6017 C   0  0  0  0  0  0  0  0  0  0  0  0
   -9.7076  -22.5373   32.3873 C   0  0  0  0  0  0  0  0  0  0  0  0
   -9.9278  -22.8137   31.0674 N   0  0  0  0  0  0  0  0  0  0  0  0
  -14.3561  -25.3817   28.8165 C   0  0  0  0  0  0  0  0  0  0  0  0
  -12.6918  -27.0771   30.6568 H   0  0  0  0  0  0  0  0  0  0  0  0
  -12.9260  -28.4426   31.7441 H   0  0  0  0  0  0  0  0  0  0  0  0
  -14.3085  -27.4436   31.2908 H   0  0  0  0  0  0  0  0  0  0  0  0
  -14.2839  -29.6431   30.0904 H   0  0  0  0  0  0  0  0  0  0  0  0
  -11.8645  -29.9652   30.0188 H   0  0  0  0  0  0  0  0  0  0  0  0
  -12.5314  -30.1009   28.4034 H   0  0  0  0  0  0  0  0  0  0  0  0
  -11.6534  -28.6319   28.8748 H   0  0  0  0  0  0  0  0  0  0  0  0
  -12.7071  -26.7140   28.3584 H   0  0  0  0  0  0  0  0  0  0  0  0
  -14.7529  -26.1971   26.2045 H   0  0  0  0  0  0  0  0  0  0  0  0
  -12.9811  -26.2440   26.1267 H   0  0  0  0  0  0  0  0  0  0  0  0
  -14.7331  -23.9576   26.8814 H   0  0  0  0  0  0  0  0  0  0  0  0
  -13.0192  -24.0549   26.5260 H   0  0  0  0  0  0  0  0  0  0  0  0
  -10.8942  -22.8099   26.8729 H   0  0  0  0  0  0  0  0  0  0  0  0
  -11.4524  -21.0784   27.0855 H   0  0  0  0  0  0  0  0  0  0  0  0
  -12.5680  -22.2638   26.7476 H   0  0  0  0  0  0  0  0  0  0  0  0
   -9.8988  -21.8474   28.5453 H   0  0  0  0  0  0  0  0  0  0  0  0
  -11.1433  -20.5463   28.8969 H   0  0  0  0  0  0  0  0  0  0  0  0
  -10.3906  -20.7718   33.5323 H   0  0  0  0  0  0  0  0  0  0  0  0
   -9.2106  -23.2361   33.0446 H   0  0  0  0  0  0  0  0  0  0  0  0
   -9.6812  -23.6689   30.5841 H   0  0  0  0  0  0  0  0  0  0  0  0
  -15.4165  -25.1624   28.6001 H   0  0  0  0  0  0  0  0  0  0  0  0
  -14.3383  -25.5638   29.8967 H   0  0  0  0  0  0  0  0  0  0  0  0
  1  2  1  0
  2  3  1  0
  2  4  1  0
  4  5  2  0
  4  6  2  0
  4  7  1  0
  7  8  1  0
  8  9  1  0
  9 10  1  0
 10 11  1  0
 11 12  2  0
 11 13  1  0
 13 14  1  0
 13 15  1  0
 15 16  1  0
 16 17  2  0
 17 18  1  0
 18 19  2  0
 19 20  1  0
 10 21  1  0
 21  7  1  0
 20 16  1  0
  1 22  1  0
  1 23  1  0
  1 24  1  0
  2 25  1  0
  3 26  1  0
  3 27  1  0
  3 28  1  0
  7 29  1  0
  8 30  1  0
  8 31  1  0
  9 32  1  0
  9 33  1  0
 14 34  1  0
 14 35  1  0
 14 36  1  0
 15 37  1  0
 15 38  1  0
 18 39  1  0
 19 40  1  0
 20 41  1  0
 21 42  1  0
 21 43  1  0
M  END
>  <Energy>  (1276) 
72.985711282052392

>  <compound_id>  (1276) 
18086

>  <target_id>  (1276) 
1

>  <reference_id>  (1276) 
3

>  <inspiration_ids>  (1276) 
[3, 115]

>  <energy_score>  (1276) 
90.36193427980922

>  <distance_score>  (1276) 
3.457312426773186

>  <path>  (1276) 
/opt/xchem-fragalysis-2/maxwin/BulkDock/SCRATCH/511020/C18086-P3/C18086-P3.minimised.mol

>  <scratch_subdir>  (1276) 
/opt/xchem-fragalysis-2/maxwin/BulkDock/SCRATCH/511020/C18086-P3

>  <fragmenstein_runtime>  (1276) 
18.799245595932007

>  <fragmenstein_outcome>  (1276) 
too moved

>  <fragmenstein_mode>  (1276) 
expansion

>  <fragmenstein_error>  (1276) 


$$$$
C18086-P115
     RDKit          3D

 43 44  0  0  0  0  0  0  0  0999 V2000
  -11.9799  -27.7809   29.9830 C   0  0  0  0  0  0  0  0  0  0  0  0
  -12.7443  -28.0807   28.7029 C   0  0  0  0  0  0  0  0  0  0  0  0
  -13.9302  -28.9840   29.0542 C   0  0  0  0  0  0  0  0  0  0  0  0
  -13.3123  -26.5870   27.9260 S   0  0  0  0  0  0  0  0  0  0  0  0
  -14.3059  -26.9039   26.9169 O   0  0  0  0  0  0  0  0  0  0  0  0
  -13.8356  -25.8580   29.0609 O   0  0  0  0  0  0  0  0  0  0  0  0
  -11.8291  -25.8660   27.1012 C   0  0  0  0  0  0  0  0  0  0  0  0
  -11.8339  -24.3894   26.8987 C   0  0  0  0  0  0  0  0  0  0  0  0
  -11.1489  -23.9465   28.2114 C   0  0  0  0  0  0  0  0  0  0  0  0
  -11.1334  -25.1015   29.2317 N   0  0  0  0  0  0  0  0  0  0  0  0
  -10.4129  -24.7074   30.4559 C   0  0  0  0  0  0  0  0  0  0  0  0
   -9.2723  -24.8236   30.7212 O   0  0  0  0  0  0  0  0  0  0  0  0
  -11.5427  -24.2190   31.2887 N   0  0  0  0  0  0  0  0  0  0  0  0
  -11.7200  -22.7271   31.1176 C   0  0  0  0  0  0  0  0  0  0  0  0
  -11.5878  -23.8317   32.7641 C   0  0  0  0  0  0  0  0  0  0  0  0
  -10.6005  -22.8764   33.4189 C   0  0  0  0  0  0  0  0  0  0  0  0
  -10.3108  -21.6373   33.0522 N   0  0  0  0  0  0  0  0  0  0  0  0
   -9.6476  -21.0651   34.0964 C   0  0  0  0  0  0  0  0  0  0  0  0
   -9.5789  -21.9442   35.1426 C   0  0  0  0  0  0  0  0  0  0  0  0
  -10.1198  -23.1130   34.6837 N   0  0  0  0  0  0  0  0  0  0  0  0
  -10.6744  -25.8421   28.0432 C   0  0  0  0  0  0  0  0  0  0  0  0
  -12.1059  -28.6286   30.6526 H   0  0  0  0  0  0  0  0  0  0  0  0
  -10.9072  -27.6531   29.8913 H   0  0  0  0  0  0  0  0  0  0  0  0
  -12.2536  -26.8561   30.4682 H   0  0  0  0  0  0  0  0  0  0  0  0
  -12.0927  -28.5928   28.0009 H   0  0  0  0  0  0  0  0  0  0  0  0
  -14.6073  -28.5038   29.7665 H   0  0  0  0  0  0  0  0  0  0  0  0
  -13.5887  -29.9283   29.4916 H   0  0  0  0  0  0  0  0  0  0  0  0
  -14.5421  -29.2341   28.1835 H   0  0  0  0  0  0  0  0  0  0  0  0
  -11.6416  -26.4272   26.1838 H   0  0  0  0  0  0  0  0  0  0  0  0
  -12.8100  -23.9675   26.6863 H   0  0  0  0  0  0  0  0  0  0  0  0
  -11.1926  -24.1051   26.0557 H   0  0  0  0  0  0  0  0  0  0  0  0
  -11.6860  -23.0843   28.5852 H   0  0  0  0  0  0  0  0  0  0  0  0
  -10.1286  -23.5599   28.0538 H   0  0  0  0  0  0  0  0  0  0  0  0
  -12.3401  -22.6503   30.2226 H   0  0  0  0  0  0  0  0  0  0  0  0
  -12.4064  -22.1594   31.7733 H   0  0  0  0  0  0  0  0  0  0  0  0
  -10.8266  -22.1663   30.8668 H   0  0  0  0  0  0  0  0  0  0  0  0
  -12.5861  -23.5469   33.0981 H   0  0  0  0  0  0  0  0  0  0  0  0
  -11.4106  -24.8057   33.2454 H   0  0  0  0  0  0  0  0  0  0  0  0
   -9.2805  -20.0471   34.0484 H   0  0  0  0  0  0  0  0  0  0  0  0
   -9.1805  -21.8496   36.1411 H   0  0  0  0  0  0  0  0  0  0  0  0
  -10.2577  -23.9591   35.2237 H   0  0  0  0  0  0  0  0  0  0  0  0
   -9.7118  -25.4844   27.6485 H   0  0  0  0  0  0  0  0  0  0  0  0
  -10.3879  -26.8407   28.3344 H   0  0  0  0  0  0  0  0  0  0  0  0
  1  2  1  0
  2  3  1  0
  2  4  1  0
  4  5  2  0
  4  6  2  0
  4  7  1  0
  7  8  1  0
  8  9  1  0
  9 10  1  0
 10 11  1  0
 11 12  2  0
 11 13  1  0
 13 14  1  0
 13 15  1  0
 15 16  1  0
 16 17  2  0
 17 18  1  0
 18 19  2  0
 19 20  1  0
 10 21  1  0
 21  7  1  0
 20 16  1  0
  1 22  1  0
  1 23  1  0
  1 24  1  0
  2 25  1  0
  3 26  1  0
  3 27  1  0
  3 28  1  0
  7 29  1  0
  8 30  1  0
  8 31  1  0
  9 32  1  0
  9 33  1  0
 14 34  1  0
 14 35  1  0
 14 36  1  0
 15 37  1  0
 15 38  1  0
 18 39  1  0
 19 40  1  0
 20 41  1  0
 21 42  1  0
 21 43  1  0
M  END
>  <Energy>  (1277) 
116.19385870023568

>  <compound_id>  (1277) 
18086

>  <target_id>  (1277) 
1

>  <reference_id>  (1277) 
115

>  <inspiration_ids>  (1277) 
[3, 115]

>  <energy_score>  (1277) 
133.57008169799593

>  <distance_score>  (1277) 
3.4312124234526036

>  <path>  (1277) 
/opt/xchem-fragalysis-2/maxwin/BulkDock/SCRATCH/511020/C18086-P115/C18086-P115.minimised.mol

>  <scratch_subdir>  (1277) 
/opt/xchem-fragalysis-2/maxwin/BulkDock/SCRATCH/511020/C18086-P115

>  <fragmenstein_runtime>  (1277) 
17.09798550605774

>  <fragmenstein_outcome>  (1277) 
too moved

>  <fragmenstein_mode>  (1277) 
expansion

>  <fragmenstein_error>  (1277) 


$$$$
C18087-P3
     RDKit          3D

 42 45  0  0  0  0  0  0  0  0999 V2000
  -10.3663  -21.7310   31.2721 C   0  0  0  0  0  0  0  0  0  0  0  0
  -11.1266  -21.3490   30.0041 C   0  0  0  0  0  0  0  0  0  0  0  0
  -10.9266  -19.9816   29.6603 O   0  0  0  0  0  0  0  0  0  0  0  0
  -10.7615  -22.2518   28.8305 C   0  0  0  0  0  0  0  0  0  0  0  0
  -11.8449  -22.7051   27.9798 N   0  0  0  0  0  0  0  0  0  0  0  0
  -11.8770  -22.6486   26.6149 C   0  0  0  0  0  0  0  0  0  0  0  0
  -12.7011  -23.5490   26.1112 N   0  0  0  0  0  0  0  0  0  0  0  0
  -13.3116  -24.1371   27.1911 C   0  0  0  0  0  0  0  0  0  0  0  0
  -14.0245  -25.3301   27.4657 C   0  0  0  0  0  0  0  0  0  0  0  0
  -13.5920  -26.6185   27.1180 N   0  0  0  0  0  0  0  0  0  0  0  0
  -13.0361  -26.6434   25.7716 C   0  0  0  0  0  0  0  0  0  0  0  0
  -11.5485  -26.3725   25.9434 C   0  0  0  0  0  0  0  0  0  0  0  0
  -11.2295  -26.6708   27.3931 C   0  0  0  0  0  0  0  0  0  0  0  0
  -12.5161  -27.1926   28.0176 C   0  0  0  0  0  0  0  0  0  0  0  0
  -12.3871  -27.0897   29.5440 C   0  0  0  0  0  0  0  0  0  0  0  0
  -12.6982  -28.0286   30.4178 N   0  0  0  0  0  0  0  0  0  0  0  0
  -12.3885  -27.5351   31.6523 C   0  0  0  0  0  0  0  0  0  0  0  0
  -11.8211  -26.2969   31.5466 C   0  0  0  0  0  0  0  0  0  0  0  0
  -11.7493  -26.0629   30.2110 N   0  0  0  0  0  0  0  0  0  0  0  0
  -14.8128  -25.3451   28.5521 N   0  0  0  0  0  0  0  0  0  0  0  0
  -14.3528  -24.6684   29.5772 C   0  0  0  0  0  0  0  0  0  0  0  0
  -13.2271  -23.9026   29.5856 N   0  0  0  0  0  0  0  0  0  0  0  0
  -12.8305  -23.5753   28.3479 C   0  0  0  0  0  0  0  0  0  0  0  0
  -10.4887  -20.9687   32.0480 H   0  0  0  0  0  0  0  0  0  0  0  0
   -9.2949  -21.8505   31.0901 H   0  0  0  0  0  0  0  0  0  0  0  0
  -10.7226  -22.6898   31.6590 H   0  0  0  0  0  0  0  0  0  0  0  0
  -12.1685  -21.4100   30.2393 H   0  0  0  0  0  0  0  0  0  0  0  0
  -11.4193  -19.4543   30.3190 H   0  0  0  0  0  0  0  0  0  0  0  0
  -10.3171  -23.1720   29.2176 H   0  0  0  0  0  0  0  0  0  0  0  0
  -10.0331  -21.7536   28.1850 H   0  0  0  0  0  0  0  0  0  0  0  0
  -11.2322  -22.0107   26.0303 H   0  0  0  0  0  0  0  0  0  0  0  0
  -13.1805  -27.6493   25.3714 H   0  0  0  0  0  0  0  0  0  0  0  0
  -13.5455  -25.9576   25.0888 H   0  0  0  0  0  0  0  0  0  0  0  0
  -11.2623  -25.3413   25.7552 H   0  0  0  0  0  0  0  0  0  0  0  0
  -10.9646  -26.9352   25.2259 H   0  0  0  0  0  0  0  0  0  0  0  0
  -10.3994  -27.3612   27.5583 H   0  0  0  0  0  0  0  0  0  0  0  0
  -10.9323  -25.7279   27.8483 H   0  0  0  0  0  0  0  0  0  0  0  0
  -12.5765  -28.2742   27.8404 H   0  0  0  0  0  0  0  0  0  0  0  0
  -12.5634  -28.1138   32.5501 H   0  0  0  0  0  0  0  0  0  0  0  0
  -11.3710  -25.6460   32.2731 H   0  0  0  0  0  0  0  0  0  0  0  0
  -11.3980  -25.2198   29.7862 H   0  0  0  0  0  0  0  0  0  0  0  0
  -14.8909  -24.7964   30.5118 H   0  0  0  0  0  0  0  0  0  0  0  0
  1  2  1  0
  2  3  1  0
  2  4  1  0
  4  5  1  0
  5  6  1  0
  6  7  2  0
  7  8  1  0
  8  9  2  0
  9 10  1  0
 10 11  1  0
 11 12  1  0
 12 13  1  0
 13 14  1  0
 14 15  1  0
 15 16  2  0
 16 17  1  0
 17 18  2  0
 18 19  1  0
  9 20  1  0
 20 21  2  0
 21 22  1  0
 22 23  2  0
 23  5  1  0
 23  8  1  0
 14 10  1  0
 19 15  1  0
  1 24  1  0
  1 25  1  0
  1 26  1  0
  2 27  1  0
  3 28  1  0
  4 29  1  0
  4 30  1  0
  6 31  1  0
 11 32  1  0
 11 33  1  0
 12 34  1  0
 12 35  1  0
 13 36  1  0
 13 37  1  0
 14 38  1  0
 17 39  1  0
 18 40  1  0
 19 41  1  0
 21 42  1  0
M  END
>  <Energy>  (1278) 
104.57435230788602

>  <compound_id>  (1278) 
18087

>  <target_id>  (1278) 
1

>  <reference_id>  (1278) 
3

>  <inspiration_ids>  (1278) 
[3, 115]

>  <energy_score>  (1278) 
12.13956024189443

>  <distance_score>  (1278) 
2.413413299256828

>  <path>  (1278) 
/opt/xchem-fragalysis-2/maxwin/BulkDock/SCRATCH/511020/C18087-P3/C18087-P3.minimised.mol

>  <scratch_subdir>  (1278) 
/opt/xchem-fragalysis-2/maxwin/BulkDock/SCRATCH/511020/C18087-P3

>  <fragmenstein_runtime>  (1278) 
5.2310707569122314

>  <fragmenstein_outcome>  (1278) 
too moved

>  <fragmenstein_mode>  (1278) 
expansion

>  <fragmenstein_error>  (1278) 


$$$$
C18087-P115
     RDKit          3D

 42 45  0  0  0  0  0  0  0  0999 V2000
  -10.5108  -23.1193   34.6840 C   0  0  0  0  0  0  0  0  0  0  0  0
  -10.8655  -22.3816   33.4074 C   0  0  0  0  0  0  0  0  0  0  0  0
  -11.1891  -21.0214   33.7394 O   0  0  0  0  0  0  0  0  0  0  0  0
  -12.0456  -22.9940   32.6207 C   0  0  0  0  0  0  0  0  0  0  0  0
  -12.0378  -22.6764   31.1990 N   0  0  0  0  0  0  0  0  0  0  0  0
  -11.4072  -21.5602   30.7367 C   0  0  0  0  0  0  0  0  0  0  0  0
  -11.0652  -21.6460   29.4832 N   0  0  0  0  0  0  0  0  0  0  0  0
  -11.4622  -22.9012   29.1336 C   0  0  0  0  0  0  0  0  0  0  0  0
  -10.8085  -24.0104   28.6249 C   0  0  0  0  0  0  0  0  0  0  0  0
   -9.8476  -24.6396   29.5433 N   0  0  0  0  0  0  0  0  0  0  0  0
   -9.1336  -25.3406   28.5684 C   0  0  0  0  0  0  0  0  0  0  0  0
   -9.6613  -26.7012   28.5499 C   0  0  0  0  0  0  0  0  0  0  0  0
  -10.1730  -26.9718   29.9427 C   0  0  0  0  0  0  0  0  0  0  0  0
  -10.2773  -25.6189   30.5960 C   0  0  0  0  0  0  0  0  0  0  0  0
   -9.7384  -25.7056   31.9992 C   0  0  0  0  0  0  0  0  0  0  0  0
  -10.5191  -25.8796   33.0525 N   0  0  0  0  0  0  0  0  0  0  0  0
   -9.7555  -26.4615   34.0147 C   0  0  0  0  0  0  0  0  0  0  0  0
   -8.4761  -26.6058   33.5686 C   0  0  0  0  0  0  0  0  0  0  0  0
   -8.4539  -25.9704   32.3558 N   0  0  0  0  0  0  0  0  0  0  0  0
  -11.6004  -24.8521   27.9316 N   0  0  0  0  0  0  0  0  0  0  0  0
  -12.5458  -25.2938   28.7124 C   0  0  0  0  0  0  0  0  0  0  0  0
  -12.7946  -24.7388   29.9100 N   0  0  0  0  0  0  0  0  0  0  0  0
  -12.2587  -23.4762   30.0980 C   0  0  0  0  0  0  0  0  0  0  0  0
  -10.1742  -22.4361   35.4699 H   0  0  0  0  0  0  0  0  0  0  0  0
   -9.6897  -23.8130   34.5013 H   0  0  0  0  0  0  0  0  0  0  0  0
  -11.3504  -23.7024   35.0723 H   0  0  0  0  0  0  0  0  0  0  0  0
   -9.9647  -22.3495   32.7983 H   0  0  0  0  0  0  0  0  0  0  0  0
  -10.4094  -20.6329   34.1780 H   0  0  0  0  0  0  0  0  0  0  0  0
  -12.9770  -22.5697   32.9965 H   0  0  0  0  0  0  0  0  0  0  0  0
  -12.0406  -24.0749   32.7129 H   0  0  0  0  0  0  0  0  0  0  0  0
  -11.1001  -20.7771   31.4055 H   0  0  0  0  0  0  0  0  0  0  0  0
   -9.2010  -24.9077   27.5703 H   0  0  0  0  0  0  0  0  0  0  0  0
   -8.1261  -25.3729   28.9287 H   0  0  0  0  0  0  0  0  0  0  0  0
   -8.7609  -27.2133   28.2624 H   0  0  0  0  0  0  0  0  0  0  0  0
  -10.4250  -26.8617   27.7846 H   0  0  0  0  0  0  0  0  0  0  0  0
   -9.5116  -27.6244   30.5125 H   0  0  0  0  0  0  0  0  0  0  0  0
  -11.1574  -27.4522   29.9104 H   0  0  0  0  0  0  0  0  0  0  0  0
  -11.3040  -25.5341   30.8895 H   0  0  0  0  0  0  0  0  0  0  0  0
  -10.1710  -26.7561   34.9672 H   0  0  0  0  0  0  0  0  0  0  0  0
   -7.5895  -27.0390   34.0080 H   0  0  0  0  0  0  0  0  0  0  0  0
   -7.6347  -25.8972   31.7746 H   0  0  0  0  0  0  0  0  0  0  0  0
  -13.1294  -26.1458   28.4005 H   0  0  0  0  0  0  0  0  0  0  0  0
  1  2  1  0
  2  3  1  0
  2  4  1  0
  4  5  1  0
  5  6  1  0
  6  7  2  0
  7  8  1  0
  8  9  2  0
  9 10  1  0
 10 11  1  0
 11 12  1  0
 12 13  1  0
 13 14  1  0
 14 15  1  0
 15 16  2  0
 16 17  1  0
 17 18  2  0
 18 19  1  0
  9 20  1  0
 20 21  2  0
 21 22  1  0
 22 23  2  0
 23  5  1  0
 23  8  1  0
 14 10  1  0
 19 15  1  0
  1 24  1  0
  1 25  1  0
  1 26  1  0
  2 27  1  0
  3 28  1  0
  4 29  1  0
  4 30  1  0
  6 31  1  0
 11 32  1  0
 11 33  1  0
 12 34  1  0
 12 35  1  0
 13 36  1  0
 13 37  1  0
 14 38  1  0
 17 39  1  0
 18 40  1  0
 19 41  1  0
 21 42  1  0
M  END
>  <Energy>  (1279) 
190.56576246550875

>  <compound_id>  (1279) 
18087

>  <target_id>  (1279) 
1

>  <reference_id>  (1279) 
115

>  <inspiration_ids>  (1279) 
[3, 115]

>  <energy_score>  (1279) 
107.31825181337891

>  <distance_score>  (1279) 
3.3081955305232413

>  <path>  (1279) 
/opt/xchem-fragalysis-2/maxwin/BulkDock/SCRATCH/511020/C18087-P115/C18087-P115.minimised.mol

>  <scratch_subdir>  (1279) 
/opt/xchem-fragalysis-2/maxwin/BulkDock/SCRATCH/511020/C18087-P115

>  <fragmenstein_runtime>  (1279) 
7.448163747787476

>  <fragmenstein_outcome>  (1279) 
too moved

>  <fragmenstein_mode>  (1279) 
expansion

>  <fragmenstein_error>  (1279) 


$$$$
C18088-P3
     RDKit          3D

 42 45  0  0  0  0  0  0  0  0999 V2000
  -10.9623  -20.9829   30.4254 C   0  0  0  0  0  0  0  0  0  0  0  0
  -10.9309  -20.9145   28.8998 C   0  0  0  0  0  0  0  0  0  0  0  0
  -11.7999  -19.8855   28.4558 O   0  0  0  0  0  0  0  0  0  0  0  0
  -11.3691  -22.2315   28.2974 C   0  0  0  0  0  0  0  0  0  0  0  0
  -11.4713  -22.2494   26.8219 N   0  0  0  0  0  0  0  0  0  0  0  0
  -10.7219  -23.2112   26.1807 C   0  0  0  0  0  0  0  0  0  0  0  0
  -11.4217  -24.3258   26.1475 N   0  0  0  0  0  0  0  0  0  0  0  0
  -12.7156  -23.8548   26.1454 C   0  0  0  0  0  0  0  0  0  0  0  0
  -13.9867  -24.4481   26.2320 C   0  0  0  0  0  0  0  0  0  0  0  0
  -14.2345  -25.6591   26.9449 N   0  0  0  0  0  0  0  0  0  0  0  0
  -13.3153  -26.7647   26.5744 C   0  0  0  0  0  0  0  0  0  0  0  0
  -12.5123  -27.1036   27.8447 C   0  0  0  0  0  0  0  0  0  0  0  0
  -12.5398  -25.8113   28.6166 C   0  0  0  0  0  0  0  0  0  0  0  0
  -12.0736  -25.8149   30.0113 C   0  0  0  0  0  0  0  0  0  0  0  0
  -11.2641  -24.9044   30.5073 N   0  0  0  0  0  0  0  0  0  0  0  0
  -10.9841  -25.3270   31.7582 C   0  0  0  0  0  0  0  0  0  0  0  0
  -11.7787  -26.4014   32.0944 C   0  0  0  0  0  0  0  0  0  0  0  0
  -12.4066  -26.7535   30.9418 N   0  0  0  0  0  0  0  0  0  0  0  0
  -13.9641  -25.3461   28.3816 C   0  0  0  0  0  0  0  0  0  0  0  0
  -15.0494  -23.6728   25.8846 N   0  0  0  0  0  0  0  0  0  0  0  0
  -14.8214  -22.3624   25.6554 C   0  0  0  0  0  0  0  0  0  0  0  0
  -13.7023  -21.6570   25.9210 N   0  0  0  0  0  0  0  0  0  0  0  0
  -12.6976  -22.4781   26.2105 C   0  0  0  0  0  0  0  0  0  0  0  0
  -10.2935  -21.7561   30.8142 H   0  0  0  0  0  0  0  0  0  0  0  0
  -11.9699  -21.1765   30.7796 H   0  0  0  0  0  0  0  0  0  0  0  0
  -10.7029  -20.0138   30.8645 H   0  0  0  0  0  0  0  0  0  0  0  0
   -9.9284  -20.6789   28.5446 H   0  0  0  0  0  0  0  0  0  0  0  0
  -11.3398  -19.0248   28.5310 H   0  0  0  0  0  0  0  0  0  0  0  0
  -10.6615  -23.0101   28.5965 H   0  0  0  0  0  0  0  0  0  0  0  0
  -12.3425  -22.5363   28.6776 H   0  0  0  0  0  0  0  0  0  0  0  0
   -9.6910  -23.0784   25.9047 H   0  0  0  0  0  0  0  0  0  0  0  0
  -13.9083  -27.6341   26.2705 H   0  0  0  0  0  0  0  0  0  0  0  0
  -12.6530  -26.5268   25.7366 H   0  0  0  0  0  0  0  0  0  0  0  0
  -12.9952  -27.9229   28.3903 H   0  0  0  0  0  0  0  0  0  0  0  0
  -11.4839  -27.3965   27.6265 H   0  0  0  0  0  0  0  0  0  0  0  0
  -11.8387  -25.1367   28.1389 H   0  0  0  0  0  0  0  0  0  0  0  0
  -10.2246  -24.8404   32.3653 H   0  0  0  0  0  0  0  0  0  0  0  0
  -11.8539  -26.9887   32.9995 H   0  0  0  0  0  0  0  0  0  0  0  0
  -13.0140  -27.5513   30.8034 H   0  0  0  0  0  0  0  0  0  0  0  0
  -14.1256  -24.2969   28.6545 H   0  0  0  0  0  0  0  0  0  0  0  0
  -14.6687  -25.9310   28.9880 H   0  0  0  0  0  0  0  0  0  0  0  0
  -15.6678  -21.7853   25.2925 H   0  0  0  0  0  0  0  0  0  0  0  0
  1  2  1  0
  2  3  1  0
  2  4  1  0
  4  5  1  0
  5  6  1  0
  6  7  2  0
  7  8  1  0
  8  9  2  0
  9 10  1  0
 10 11  1  0
 11 12  1  0
 12 13  1  0
 13 14  1  0
 14 15  2  0
 15 16  1  0
 16 17  2  0
 17 18  1  0
 13 19  1  0
  9 20  1  0
 20 21  2  0
 21 22  1  0
 22 23  2  0
 23  5  1  0
 23  8  1  0
 19 10  1  0
 18 14  1  0
  1 24  1  0
  1 25  1  0
  1 26  1  0
  2 27  1  0
  3 28  1  0
  4 29  1  0
  4 30  1  0
  6 31  1  0
 11 32  1  0
 11 33  1  0
 12 34  1  0
 12 35  1  0
 13 36  1  0
 16 37  1  0
 17 38  1  0
 18 39  1  0
 19 40  1  0
 19 41  1  0
 21 42  1  0
M  END
>  <Energy>  (1280) 
102.13334993655614

>  <compound_id>  (1280) 
18088

>  <target_id>  (1280) 
1

>  <reference_id>  (1280) 
3

>  <inspiration_ids>  (1280) 
[3, 115]

>  <energy_score>  (1280) 
23.05525508158621

>  <distance_score>  (1280) 
2.7595395991539324

>  <path>  (1280) 
/opt/xchem-fragalysis-2/maxwin/BulkDock/SCRATCH/511020/C18088-P3/C18088-P3.minimised.mol

>  <scratch_subdir>  (1280) 
/opt/xchem-fragalysis-2/maxwin/BulkDock/SCRATCH/511020/C18088-P3

>  <fragmenstein_runtime>  (1280) 
3.524390697479248

>  <fragmenstein_outcome>  (1280) 
too moved

>  <fragmenstein_mode>  (1280) 
expansion

>  <fragmenstein_error>  (1280) 


$$$$
C18088-P115
     RDKit          3D

 42 45  0  0  0  0  0  0  0  0999 V2000
  -11.9232  -23.6187   29.5233 C   0  0  0  0  0  0  0  0  0  0  0  0
  -11.4952  -23.1193   28.1500 C   0  0  0  0  0  0  0  0  0  0  0  0
  -11.6523  -21.7240   28.3702 O   0  0  0  0  0  0  0  0  0  0  0  0
  -12.2106  -23.5276   26.8086 C   0  0  0  0  0  0  0  0  0  0  0  0
  -12.2663  -24.8949   26.3506 N   0  0  0  0  0  0  0  0  0  0  0  0
  -11.1854  -25.3804   25.6781 C   0  0  0  0  0  0  0  0  0  0  0  0
  -10.7218  -26.4240   26.3191 N   0  0  0  0  0  0  0  0  0  0  0  0
  -11.7044  -26.6863   27.2382 C   0  0  0  0  0  0  0  0  0  0  0  0
  -11.7207  -27.1977   28.5295 C   0  0  0  0  0  0  0  0  0  0  0  0
  -10.6320  -27.0418   29.3499 N   0  0  0  0  0  0  0  0  0  0  0  0
   -9.5927  -26.1235   28.9808 C   0  0  0  0  0  0  0  0  0  0  0  0
   -9.2636  -25.4683   30.2864 C   0  0  0  0  0  0  0  0  0  0  0  0
   -9.6919  -26.3429   31.4262 C   0  0  0  0  0  0  0  0  0  0  0  0
  -10.0610  -25.4935   32.5968 C   0  0  0  0  0  0  0  0  0  0  0  0
  -10.3327  -24.2025   32.5652 N   0  0  0  0  0  0  0  0  0  0  0  0
  -10.7268  -23.8650   33.8236 C   0  0  0  0  0  0  0  0  0  0  0  0
  -10.6603  -24.9564   34.6465 C   0  0  0  0  0  0  0  0  0  0  0  0
  -10.1664  -25.9696   33.8742 N   0  0  0  0  0  0  0  0  0  0  0  0
  -10.8626  -27.0312   30.7717 C   0  0  0  0  0  0  0  0  0  0  0  0
  -12.9010  -27.6351   29.0294 N   0  0  0  0  0  0  0  0  0  0  0  0
  -13.9998  -27.2061   28.4134 C   0  0  0  0  0  0  0  0  0  0  0  0
  -14.0660  -26.2415   27.4761 N   0  0  0  0  0  0  0  0  0  0  0  0
  -12.8489  -25.9811   26.9613 C   0  0  0  0  0  0  0  0  0  0  0  0
  -12.0855  -24.6883   29.5693 H   0  0  0  0  0  0  0  0  0  0  0  0
  -12.7850  -23.0795   29.9257 H   0  0  0  0  0  0  0  0  0  0  0  0
  -11.2030  -23.3126   30.2773 H   0  0  0  0  0  0  0  0  0  0  0  0
  -10.4264  -23.3155   28.0328 H   0  0  0  0  0  0  0  0  0  0  0  0
  -11.0529  -21.2324   27.7845 H   0  0  0  0  0  0  0  0  0  0  0  0
  -11.7047  -22.9776   26.0151 H   0  0  0  0  0  0  0  0  0  0  0  0
  -13.2129  -23.1872   26.6692 H   0  0  0  0  0  0  0  0  0  0  0  0
  -10.6905  -24.8228   24.8955 H   0  0  0  0  0  0  0  0  0  0  0  0
   -8.7639  -26.6465   28.5110 H   0  0  0  0  0  0  0  0  0  0  0  0
   -9.8745  -25.3340   28.2879 H   0  0  0  0  0  0  0  0  0  0  0  0
   -9.8101  -24.5532   30.3153 H   0  0  0  0  0  0  0  0  0  0  0  0
   -8.2359  -25.2233   30.3717 H   0  0  0  0  0  0  0  0  0  0  0  0
   -8.9228  -27.0700   31.7051 H   0  0  0  0  0  0  0  0  0  0  0  0
  -11.0502  -22.8633   34.0698 H   0  0  0  0  0  0  0  0  0  0  0  0
  -10.9257  -25.0902   35.6847 H   0  0  0  0  0  0  0  0  0  0  0  0
   -9.9989  -26.9194   34.1742 H   0  0  0  0  0  0  0  0  0  0  0  0
  -11.7835  -26.4965   31.0086 H   0  0  0  0  0  0  0  0  0  0  0  0
  -10.8719  -28.0727   31.0801 H   0  0  0  0  0  0  0  0  0  0  0  0
  -14.9413  -27.6128   28.7693 H   0  0  0  0  0  0  0  0  0  0  0  0
  1  2  1  0
  2  3  1  0
  2  4  1  0
  4  5  1  0
  5  6  1  0
  6  7  2  0
  7  8  1  0
  8  9  2  0
  9 10  1  0
 10 11  1  0
 11 12  1  0
 12 13  1  0
 13 14  1  0
 14 15  2  0
 15 16  1  0
 16 17  2  0
 17 18  1  0
 13 19  1  0
  9 20  1  0
 20 21  2  0
 21 22  1  0
 22 23  2  0
 23  5  1  0
 23  8  1  0
 19 10  1  0
 18 14  1  0
  1 24  1  0
  1 25  1  0
  1 26  1  0
  2 27  1  0
  3 28  1  0
  4 29  1  0
  4 30  1  0
  6 31  1  0
 11 32  1  0
 11 33  1  0
 12 34  1  0
 12 35  1  0
 13 36  1  0
 16 37  1  0
 17 38  1  0
 18 39  1  0
 19 40  1  0
 19 41  1  0
 21 42  1  0
M  END
>  <Energy>  (1281) 
115.85041960940119

>  <compound_id>  (1281) 
18088

>  <target_id>  (1281) 
1

>  <reference_id>  (1281) 
115

>  <inspiration_ids>  (1281) 
[3, 115]

>  <energy_score>  (1281) 
46.986894434770534

>  <distance_score>  (1281) 
3.4880172492657437

>  <path>  (1281) 
/opt/xchem-fragalysis-2/maxwin/BulkDock/SCRATCH/511020/C18088-P115/C18088-P115.minimised.mol

>  <scratch_subdir>  (1281) 
/opt/xchem-fragalysis-2/maxwin/BulkDock/SCRATCH/511020/C18088-P115

>  <fragmenstein_runtime>  (1281) 
4.910876512527466

>  <fragmenstein_outcome>  (1281) 
too moved

>  <fragmenstein_mode>  (1281) 
expansion

>  <fragmenstein_error>  (1281) 


$$$$
C22053-P3
     RDKit          3D

 40 41  0  0  0  0  0  0  0  0999 V2000
  -14.3826  -27.7844   31.3040 C   0  0  0  0  0  0  0  0  0  0  0  0
  -13.9607  -26.5167   30.5949 C   0  0  0  0  0  0  0  0  0  0  0  0
  -13.4111  -25.6337   31.1269 O   0  0  0  0  0  0  0  0  0  0  0  0
  -14.3827  -26.6910   29.1095 N   0  0  0  0  0  0  0  0  0  0  0  0
  -14.2987  -25.7730   27.9966 C   0  0  0  0  0  0  0  0  0  0  0  0
  -12.8991  -25.1859   27.8859 C   0  0  0  0  0  0  0  0  0  0  0  0
  -12.7107  -24.2007   26.7083 C   0  0  0  0  0  0  0  0  0  0  0  0
  -13.5143  -22.9310   26.6929 C   0  0  0  0  0  0  0  0  0  0  0  0
  -12.4463  -21.9434   27.1548 C   0  0  0  0  0  0  0  0  0  0  0  0
  -11.5117  -22.6377   28.1019 N   0  0  0  0  0  0  0  0  0  0  0  0
  -10.5356  -21.6629   28.7241 C   0  0  0  0  0  0  0  0  0  0  0  0
   -9.4725  -21.3210   28.3655 O   0  0  0  0  0  0  0  0  0  0  0  0
  -11.0995  -21.1902   30.0794 C   0  0  0  0  0  0  0  0  0  0  0  0
  -11.1477  -19.7715   30.1697 O   0  0  0  0  0  0  0  0  0  0  0  0
  -10.3274  -21.8069   31.2211 C   0  0  0  0  0  0  0  0  0  0  0  0
   -9.7082  -23.0379   31.3374 C   0  0  0  0  0  0  0  0  0  0  0  0
   -9.1470  -23.0539   32.5848 N   0  0  0  0  0  0  0  0  0  0  0  0
   -9.4826  -21.8755   33.1889 C   0  0  0  0  0  0  0  0  0  0  0  0
  -10.1652  -21.0894   32.3920 N   0  0  0  0  0  0  0  0  0  0  0  0
  -11.3724  -23.5287   26.9037 C   0  0  0  0  0  0  0  0  0  0  0  0
  -14.0864  -27.7272   32.3556 H   0  0  0  0  0  0  0  0  0  0  0  0
  -15.4689  -27.8969   31.2523 H   0  0  0  0  0  0  0  0  0  0  0  0
  -13.8909  -28.6487   30.8493 H   0  0  0  0  0  0  0  0  0  0  0  0
  -14.9166  -27.5470   29.0070 H   0  0  0  0  0  0  0  0  0  0  0  0
  -14.5695  -26.3214   27.0894 H   0  0  0  0  0  0  0  0  0  0  0  0
  -15.0429  -24.9920   28.1744 H   0  0  0  0  0  0  0  0  0  0  0  0
  -12.1762  -26.0066   27.7806 H   0  0  0  0  0  0  0  0  0  0  0  0
  -12.6579  -24.6975   28.8369 H   0  0  0  0  0  0  0  0  0  0  0  0
  -12.8049  -24.7581   25.7794 H   0  0  0  0  0  0  0  0  0  0  0  0
  -13.8658  -22.6658   25.6901 H   0  0  0  0  0  0  0  0  0  0  0  0
  -14.3809  -22.9862   27.3500 H   0  0  0  0  0  0  0  0  0  0  0  0
  -11.9219  -21.4334   26.3269 H   0  0  0  0  0  0  0  0  0  0  0  0
  -12.8787  -21.0932   27.6775 H   0  0  0  0  0  0  0  0  0  0  0  0
  -12.1116  -21.5271   30.1691 H   0  0  0  0  0  0  0  0  0  0  0  0
  -10.8920  -19.5722   31.0934 H   0  0  0  0  0  0  0  0  0  0  0  0
   -9.6089  -23.8752   30.6637 H   0  0  0  0  0  0  0  0  0  0  0  0
   -8.6100  -23.8041   33.0153 H   0  0  0  0  0  0  0  0  0  0  0  0
   -9.1924  -21.6667   34.2045 H   0  0  0  0  0  0  0  0  0  0  0  0
  -10.6881  -24.3107   27.1974 H   0  0  0  0  0  0  0  0  0  0  0  0
  -10.8876  -23.0736   26.0231 H   0  0  0  0  0  0  0  0  0  0  0  0
  1  2  1  0
  2  3  2  0
  2  4  1  0
  4  5  1  0
  5  6  1  0
  6  7  1  0
  7  8  1  0
  8  9  1  0
  9 10  1  0
 10 11  1  0
 11 12  2  0
 11 13  1  0
 13 14  1  0
 13 15  1  0
 15 16  2  0
 16 17  1  0
 17 18  1  0
 18 19  2  0
 10 20  1  0
 20  7  1  0
 19 15  1  0
  1 21  1  0
  1 22  1  0
  1 23  1  0
  4 24  1  0
  5 25  1  0
  5 26  1  0
  6 27  1  0
  6 28  1  0
  7 29  1  0
  8 30  1  0
  8 31  1  0
  9 32  1  0
  9 33  1  0
 13 34  1  0
 14 35  1  0
 16 36  1  0
 17 37  1  0
 18 38  1  0
 20 39  1  0
 20 40  1  0
M  END
>  <Energy>  (1282) 
135.88765734983519

>  <compound_id>  (1282) 
22053

>  <target_id>  (1282) 
1

>  <reference_id>  (1282) 
3

>  <inspiration_ids>  (1282) 
[3, 115]

>  <energy_score>  (1282) 
62.616801160476996

>  <distance_score>  (1282) 
2.798114527274024

>  <path>  (1282) 
/opt/xchem-fragalysis-2/maxwin/BulkDock/SCRATCH/511020/C22053-P3/C22053-P3.minimised.mol

>  <scratch_subdir>  (1282) 
/opt/xchem-fragalysis-2/maxwin/BulkDock/SCRATCH/511020/C22053-P3

>  <fragmenstein_runtime>  (1282) 
7.925491571426392

>  <fragmenstein_outcome>  (1282) 
too moved

>  <fragmenstein_mode>  (1282) 
expansion

>  <fragmenstein_error>  (1282) 


$$$$
C22053-P115
     RDKit          3D

 40 41  0  0  0  0  0  0  0  0999 V2000
   -9.5572  -27.0844   32.4655 C   0  0  0  0  0  0  0  0  0  0  0  0
   -9.3002  -26.1753   31.2817 C   0  0  0  0  0  0  0  0  0  0  0  0
   -8.7006  -25.1616   31.4841 O   0  0  0  0  0  0  0  0  0  0  0  0
   -9.7647  -26.7620   30.0521 N   0  0  0  0  0  0  0  0  0  0  0  0
   -9.5667  -26.3575   28.6643 C   0  0  0  0  0  0  0  0  0  0  0  0
  -10.7751  -26.5345   27.7378 C   0  0  0  0  0  0  0  0  0  0  0  0
  -11.8149  -25.4370   27.7811 C   0  0  0  0  0  0  0  0  0  0  0  0
  -11.3033  -24.0825   27.5542 C   0  0  0  0  0  0  0  0  0  0  0  0
  -11.0714  -23.7626   29.0000 C   0  0  0  0  0  0  0  0  0  0  0  0
  -12.1680  -23.9961   29.9784 N   0  0  0  0  0  0  0  0  0  0  0  0
  -11.6903  -23.7569   31.3384 C   0  0  0  0  0  0  0  0  0  0  0  0
  -11.2013  -24.5104   32.1357 O   0  0  0  0  0  0  0  0  0  0  0  0
  -11.9965  -22.2923   31.7209 C   0  0  0  0  0  0  0  0  0  0  0  0
  -11.9132  -21.4787   30.5467 O   0  0  0  0  0  0  0  0  0  0  0  0
  -11.1769  -21.7277   32.8398 C   0  0  0  0  0  0  0  0  0  0  0  0
  -10.0891  -22.2213   33.5304 C   0  0  0  0  0  0  0  0  0  0  0  0
   -9.7330  -21.2432   34.4110 N   0  0  0  0  0  0  0  0  0  0  0  0
  -10.6037  -20.2107   34.2578 C   0  0  0  0  0  0  0  0  0  0  0  0
  -11.5190  -20.4946   33.3640 N   0  0  0  0  0  0  0  0  0  0  0  0
  -12.2995  -25.2821   29.1956 C   0  0  0  0  0  0  0  0  0  0  0  0
  -10.3275  -26.6536   33.1058 H   0  0  0  0  0  0  0  0  0  0  0  0
   -9.8272  -28.0983   32.1679 H   0  0  0  0  0  0  0  0  0  0  0  0
   -8.6325  -27.1636   33.0468 H   0  0  0  0  0  0  0  0  0  0  0  0
  -10.3076  -27.5843   30.2651 H   0  0  0  0  0  0  0  0  0  0  0  0
   -8.7587  -26.9677   28.2767 H   0  0  0  0  0  0  0  0  0  0  0  0
   -9.0999  -25.3787   28.6180 H   0  0  0  0  0  0  0  0  0  0  0  0
  -11.2997  -27.4660   27.9778 H   0  0  0  0  0  0  0  0  0  0  0  0
  -10.4265  -26.6250   26.7043 H   0  0  0  0  0  0  0  0  0  0  0  0
  -12.6240  -25.6823   27.0834 H   0  0  0  0  0  0  0  0  0  0  0  0
  -10.3935  -24.0448   26.9531 H   0  0  0  0  0  0  0  0  0  0  0  0
  -12.0440  -23.4179   27.1023 H   0  0  0  0  0  0  0  0  0  0  0  0
  -10.8561  -22.6911   28.9892 H   0  0  0  0  0  0  0  0  0  0  0  0
  -10.1873  -24.2115   29.4211 H   0  0  0  0  0  0  0  0  0  0  0  0
  -13.0401  -22.2557   32.0508 H   0  0  0  0  0  0  0  0  0  0  0  0
  -12.4760  -21.9464   29.9019 H   0  0  0  0  0  0  0  0  0  0  0  0
   -9.5444  -23.1535   33.4599 H   0  0  0  0  0  0  0  0  0  0  0  0
   -8.9653  -21.2685   35.0622 H   0  0  0  0  0  0  0  0  0  0  0  0
  -10.5320  -19.2902   34.8214 H   0  0  0  0  0  0  0  0  0  0  0  0
  -13.3675  -25.5174   29.1446 H   0  0  0  0  0  0  0  0  0  0  0  0
  -11.9740  -26.0809   29.8681 H   0  0  0  0  0  0  0  0  0  0  0  0
  1  2  1  0
  2  3  2  0
  2  4  1  0
  4  5  1  0
  5  6  1  0
  6  7  1  0
  7  8  1  0
  8  9  1  0
  9 10  1  0
 10 11  1  0
 11 12  2  0
 11 13  1  0
 13 14  1  0
 13 15  1  0
 15 16  2  0
 16 17  1  0
 17 18  1  0
 18 19  2  0
 10 20  1  0
 20  7  1  0
 19 15  1  0
  1 21  1  0
  1 22  1  0
  1 23  1  0
  4 24  1  0
  5 25  1  0
  5 26  1  0
  6 27  1  0
  6 28  1  0
  7 29  1  0
  8 30  1  0
  8 31  1  0
  9 32  1  0
  9 33  1  0
 13 34  1  0
 14 35  1  0
 16 36  1  0
 17 37  1  0
 18 38  1  0
 20 39  1  0
 20 40  1  0
M  END
>  <Energy>  (1283) 
142.75442911387401

>  <compound_id>  (1283) 
22053

>  <target_id>  (1283) 
1

>  <reference_id>  (1283) 
115

>  <inspiration_ids>  (1283) 
[3, 115]

>  <energy_score>  (1283) 
69.40171076004685

>  <distance_score>  (1283) 
2.397873572586487

>  <path>  (1283) 
/opt/xchem-fragalysis-2/maxwin/BulkDock/SCRATCH/511020/C22053-P115/C22053-P115.minimised.mol

>  <scratch_subdir>  (1283) 
/opt/xchem-fragalysis-2/maxwin/BulkDock/SCRATCH/511020/C22053-P115

>  <fragmenstein_runtime>  (1283) 
8.480874300003052

>  <fragmenstein_outcome>  (1283) 
too moved

>  <fragmenstein_mode>  (1283) 
expansion

>  <fragmenstein_error>  (1283) 


$$$$
C18091-P3
     RDKit          3D

 38 39  0  0  0  0  0  0  0  0999 V2000
  -14.5968  -27.6779   28.3759 O   0  0  0  0  0  0  0  0  0  0  0  0
  -15.2137  -26.7456   28.7207 C   0  0  0  0  0  0  0  0  0  0  0  0
  -16.0700  -26.7779   29.9867 C   0  0  0  0  0  0  0  0  0  0  0  0
  -15.3208  -25.9046   31.3804 S   0  0  0  0  0  0  0  0  0  0  0  0
  -13.8817  -26.9859   31.7334 C   0  0  0  0  0  0  0  0  0  0  0  0
  -12.6691  -26.4674   31.0427 C   0  0  0  0  0  0  0  0  0  0  0  0
  -11.9934  -25.3748   31.3330 N   0  0  0  0  0  0  0  0  0  0  0  0
  -11.1503  -25.1764   30.2758 C   0  0  0  0  0  0  0  0  0  0  0  0
  -11.3070  -26.1669   29.3438 C   0  0  0  0  0  0  0  0  0  0  0  0
  -12.1898  -27.0440   29.8941 N   0  0  0  0  0  0  0  0  0  0  0  0
  -15.4318  -25.3700   28.0290 N   0  0  0  0  0  0  0  0  0  0  0  0
  -14.8571  -24.8260   26.8155 C   0  0  0  0  0  0  0  0  0  0  0  0
  -15.1938  -23.3991   26.5517 C   0  0  0  0  0  0  0  0  0  0  0  0
  -13.7976  -22.8780   26.3348 C   0  0  0  0  0  0  0  0  0  0  0  0
  -12.8409  -23.3893   27.3697 N   0  0  0  0  0  0  0  0  0  0  0  0
  -11.4923  -22.7242   27.2434 C   0  0  0  0  0  0  0  0  0  0  0  0
  -10.5490  -23.0345   26.6196 O   0  0  0  0  0  0  0  0  0  0  0  0
  -11.4572  -21.5152   28.2119 C   0  0  0  0  0  0  0  0  0  0  0  0
  -11.5232  -21.8314   29.5975 O   0  0  0  0  0  0  0  0  0  0  0  0
  -13.3439  -24.6930   26.8195 C   0  0  0  0  0  0  0  0  0  0  0  0
  -17.0465  -26.3317   29.7702 H   0  0  0  0  0  0  0  0  0  0  0  0
  -16.2605  -27.8208   30.2616 H   0  0  0  0  0  0  0  0  0  0  0  0
  -14.1041  -28.0218   31.4590 H   0  0  0  0  0  0  0  0  0  0  0  0
  -13.7095  -26.9667   32.8144 H   0  0  0  0  0  0  0  0  0  0  0  0
  -10.4838  -24.3270   30.2519 H   0  0  0  0  0  0  0  0  0  0  0  0
  -10.8751  -26.3381   28.3696 H   0  0  0  0  0  0  0  0  0  0  0  0
  -12.5951  -27.8463   29.4246 H   0  0  0  0  0  0  0  0  0  0  0  0
  -15.9589  -24.7581   28.6477 H   0  0  0  0  0  0  0  0  0  0  0  0
  -15.1647  -25.4941   26.0040 H   0  0  0  0  0  0  0  0  0  0  0  0
  -15.8254  -23.2572   25.6708 H   0  0  0  0  0  0  0  0  0  0  0  0
  -15.6880  -22.9306   27.4059 H   0  0  0  0  0  0  0  0  0  0  0  0
  -13.4194  -23.0234   25.3056 H   0  0  0  0  0  0  0  0  0  0  0  0
  -13.7895  -21.7874   26.4228 H   0  0  0  0  0  0  0  0  0  0  0  0
  -12.2731  -20.8351   27.9583 H   0  0  0  0  0  0  0  0  0  0  0  0
  -10.5317  -20.9591   28.0431 H   0  0  0  0  0  0  0  0  0  0  0  0
  -10.6428  -22.1571   29.8527 H   0  0  0  0  0  0  0  0  0  0  0  0
  -12.9171  -25.4600   27.4671 H   0  0  0  0  0  0  0  0  0  0  0  0
  -12.8811  -24.9196   25.8491 H   0  0  0  0  0  0  0  0  0  0  0  0
  1  2  2  0
  2  3  1  0
  3  4  1  0
  4  5  1  0
  5  6  1  0
  6  7  2  0
  7  8  1  0
  8  9  2  0
  9 10  1  0
  2 11  1  0
 11 12  1  0
 12 13  1  0
 13 14  1  0
 14 15  1  0
 15 16  1  0
 16 17  2  0
 16 18  1  0
 18 19  1  0
 15 20  1  0
 10  6  1  0
 20 12  1  0
  3 21  1  0
  3 22  1  0
  5 23  1  0
  5 24  1  0
  8 25  1  0
  9 26  1  0
 10 27  1  0
 11 28  1  0
 12 29  1  0
 13 30  1  0
 13 31  1  0
 14 32  1  0
 14 33  1  0
 18 34  1  0
 18 35  1  0
 19 36  1  0
 20 37  1  0
 20 38  1  0
M  END
>  <Energy>  (1284) 
138.54313628898973

>  <compound_id>  (1284) 
18091

>  <target_id>  (1284) 
1

>  <reference_id>  (1284) 
3

>  <inspiration_ids>  (1284) 
[3, 115]

>  <energy_score>  (1284) 
48.688887781793795

>  <distance_score>  (1284) 
2.9828448699348185

>  <path>  (1284) 
/opt/xchem-fragalysis-2/maxwin/BulkDock/SCRATCH/511020/C18091-P3/C18091-P3.minimised.mol

>  <scratch_subdir>  (1284) 
/opt/xchem-fragalysis-2/maxwin/BulkDock/SCRATCH/511020/C18091-P3

>  <fragmenstein_runtime>  (1284) 
5.6474785804748535

>  <fragmenstein_outcome>  (1284) 
too moved

>  <fragmenstein_mode>  (1284) 
expansion

>  <fragmenstein_error>  (1284) 


$$$$
C18091-P115
     RDKit          3D

 38 39  0  0  0  0  0  0  0  0999 V2000
   -9.0234  -24.6640   28.7174 O   0  0  0  0  0  0  0  0  0  0  0  0
  -10.0506  -25.1712   28.4300 C   0  0  0  0  0  0  0  0  0  0  0  0
  -10.1435  -26.6231   28.4073 C   0  0  0  0  0  0  0  0  0  0  0  0
  -11.1416  -27.0110   29.9654 S   0  0  0  0  0  0  0  0  0  0  0  0
  -10.2509  -26.0503   31.2893 C   0  0  0  0  0  0  0  0  0  0  0  0
   -9.4622  -26.8454   32.2677 C   0  0  0  0  0  0  0  0  0  0  0  0
   -8.6316  -26.3646   33.1687 N   0  0  0  0  0  0  0  0  0  0  0  0
   -8.1213  -27.4504   33.8247 C   0  0  0  0  0  0  0  0  0  0  0  0
   -8.6987  -28.6079   33.3772 C   0  0  0  0  0  0  0  0  0  0  0  0
   -9.5411  -28.2012   32.3919 N   0  0  0  0  0  0  0  0  0  0  0  0
  -11.2988  -24.6191   28.1804 N   0  0  0  0  0  0  0  0  0  0  0  0
  -11.7578  -23.3031   28.2879 C   0  0  0  0  0  0  0  0  0  0  0  0
  -10.8600  -22.1946   28.4415 C   0  0  0  0  0  0  0  0  0  0  0  0
  -11.4140  -21.5859   29.7296 C   0  0  0  0  0  0  0  0  0  0  0  0
  -12.0423  -22.4121   30.8257 N   0  0  0  0  0  0  0  0  0  0  0  0
  -11.2486  -22.3483   32.0263 C   0  0  0  0  0  0  0  0  0  0  0  0
  -10.3485  -23.0506   32.4060 O   0  0  0  0  0  0  0  0  0  0  0  0
  -11.7185  -21.2739   32.9822 C   0  0  0  0  0  0  0  0  0  0  0  0
  -13.1247  -21.3818   33.1616 O   0  0  0  0  0  0  0  0  0  0  0  0
  -12.0704  -23.3850   29.7815 C   0  0  0  0  0  0  0  0  0  0  0  0
  -10.6629  -26.9650   27.5097 H   0  0  0  0  0  0  0  0  0  0  0  0
   -9.1257  -26.9860   28.4873 H   0  0  0  0  0  0  0  0  0  0  0  0
  -11.0403  -25.5462   31.8562 H   0  0  0  0  0  0  0  0  0  0  0  0
   -9.5959  -25.2835   30.8839 H   0  0  0  0  0  0  0  0  0  0  0  0
   -7.3566  -27.3447   34.5810 H   0  0  0  0  0  0  0  0  0  0  0  0
   -8.5658  -29.6436   33.6501 H   0  0  0  0  0  0  0  0  0  0  0  0
  -10.1459  -28.7784   31.8329 H   0  0  0  0  0  0  0  0  0  0  0  0
  -11.9307  -25.3548   27.8807 H   0  0  0  0  0  0  0  0  0  0  0  0
  -12.4528  -23.0903   27.4843 H   0  0  0  0  0  0  0  0  0  0  0  0
   -9.8220  -22.4735   28.4224 H   0  0  0  0  0  0  0  0  0  0  0  0
  -11.0245  -21.5797   27.5712 H   0  0  0  0  0  0  0  0  0  0  0  0
  -10.6633  -20.9517   30.1850 H   0  0  0  0  0  0  0  0  0  0  0  0
  -12.2302  -20.9272   29.4145 H   0  0  0  0  0  0  0  0  0  0  0  0
  -11.4155  -20.2963   32.6362 H   0  0  0  0  0  0  0  0  0  0  0  0
  -11.2358  -21.4232   33.9532 H   0  0  0  0  0  0  0  0  0  0  0  0
  -13.2243  -22.2721   33.5586 H   0  0  0  0  0  0  0  0  0  0  0  0
  -12.8938  -24.0480   29.9616 H   0  0  0  0  0  0  0  0  0  0  0  0
  -11.2930  -24.0250   30.2178 H   0  0  0  0  0  0  0  0  0  0  0  0
  1  2  2  0
  2  3  1  0
  3  4  1  0
  4  5  1  0
  5  6  1  0
  6  7  2  0
  7  8  1  0
  8  9  2  0
  9 10  1  0
  2 11  1  0
 11 12  1  0
 12 13  1  0
 13 14  1  0
 14 15  1  0
 15 16  1  0
 16 17  2  0
 16 18  1  0
 18 19  1  0
 15 20  1  0
 10  6  1  0
 20 12  1  0
  3 21  1  0
  3 22  1  0
  5 23  1  0
  5 24  1  0
  8 25  1  0
  9 26  1  0
 10 27  1  0
 11 28  1  0
 12 29  1  0
 13 30  1  0
 13 31  1  0
 14 32  1  0
 14 33  1  0
 18 34  1  0
 18 35  1  0
 19 36  1  0
 20 37  1  0
 20 38  1  0
M  END
>  <Energy>  (1285) 
182.28418307418008

>  <compound_id>  (1285) 
18091

>  <target_id>  (1285) 
1

>  <reference_id>  (1285) 
115

>  <inspiration_ids>  (1285) 
[3, 115]

>  <energy_score>  (1285) 
97.07499199714852

>  <distance_score>  (1285) 
3.4938172113056796

>  <path>  (1285) 
/opt/xchem-fragalysis-2/maxwin/BulkDock/SCRATCH/511020/C18091-P115/C18091-P115.minimised.mol

>  <scratch_subdir>  (1285) 
/opt/xchem-fragalysis-2/maxwin/BulkDock/SCRATCH/511020/C18091-P115

>  <fragmenstein_runtime>  (1285) 
5.772562265396118

>  <fragmenstein_outcome>  (1285) 
too moved

>  <fragmenstein_mode>  (1285) 
expansion

>  <fragmenstein_error>  (1285) 


$$$$
C18095-P3
     RDKit          3D

 41 42  0  0  0  0  0  0  0  0999 V2000
  -17.4578  -25.4084   26.8577 C   0  0  0  0  0  0  0  0  0  0  0  0
  -16.1006  -25.7590   27.4103 N   0  0  0  0  0  0  0  0  0  0  0  0
  -16.0580  -25.4910   28.8193 C   0  0  0  0  0  0  0  0  0  0  0  0
  -15.7323  -24.4996   29.4164 O   0  0  0  0  0  0  0  0  0  0  0  0
  -16.4124  -26.7745   29.5831 C   0  0  0  0  0  0  0  0  0  0  0  0
  -15.3364  -28.1803   29.0847 S   0  0  0  0  0  0  0  0  0  0  0  0
  -13.7006  -27.4277   29.3864 C   0  0  0  0  0  0  0  0  0  0  0  0
  -13.3549  -27.4262   30.8320 C   0  0  0  0  0  0  0  0  0  0  0  0
  -14.0652  -26.9355   31.8262 N   0  0  0  0  0  0  0  0  0  0  0  0
  -13.3875  -27.2597   32.9645 C   0  0  0  0  0  0  0  0  0  0  0  0
  -12.1979  -27.8676   32.6639 C   0  0  0  0  0  0  0  0  0  0  0  0
  -12.1955  -27.9820   31.3044 N   0  0  0  0  0  0  0  0  0  0  0  0
  -15.6434  -24.9245   26.2304 C   0  0  0  0  0  0  0  0  0  0  0  0
  -15.6302  -23.4165   26.3295 C   0  0  0  0  0  0  0  0  0  0  0  0
  -14.1629  -23.1346   26.1027 C   0  0  0  0  0  0  0  0  0  0  0  0
  -13.3308  -24.0497   26.9387 N   0  0  0  0  0  0  0  0  0  0  0  0
  -11.9598  -23.6704   26.8740 C   0  0  0  0  0  0  0  0  0  0  0  0
  -11.0876  -24.0223   26.1260 O   0  0  0  0  0  0  0  0  0  0  0  0
  -11.6402  -22.6108   27.9608 C   0  0  0  0  0  0  0  0  0  0  0  0
  -11.8674  -23.0176   29.3004 O   0  0  0  0  0  0  0  0  0  0  0  0
  -14.0979  -25.0840   26.1723 C   0  0  0  0  0  0  0  0  0  0  0  0
  -18.1754  -25.9239   27.5136 H   0  0  0  0  0  0  0  0  0  0  0  0
  -17.6862  -25.8437   25.8735 H   0  0  0  0  0  0  0  0  0  0  0  0
  -17.7548  -24.3566   26.9679 H   0  0  0  0  0  0  0  0  0  0  0  0
  -16.3283  -26.5977   30.6583 H   0  0  0  0  0  0  0  0  0  0  0  0
  -17.4537  -27.0420   29.3808 H   0  0  0  0  0  0  0  0  0  0  0  0
  -13.6396  -26.4139   28.9854 H   0  0  0  0  0  0  0  0  0  0  0  0
  -12.9728  -28.0265   28.8274 H   0  0  0  0  0  0  0  0  0  0  0  0
  -13.7900  -27.0255   33.9403 H   0  0  0  0  0  0  0  0  0  0  0  0
  -11.3903  -28.2288   33.2869 H   0  0  0  0  0  0  0  0  0  0  0  0
  -11.4837  -28.4201   30.7379 H   0  0  0  0  0  0  0  0  0  0  0  0
  -15.9593  -25.3299   25.2552 H   0  0  0  0  0  0  0  0  0  0  0  0
  -15.9465  -23.0542   27.3115 H   0  0  0  0  0  0  0  0  0  0  0  0
  -16.2560  -22.9360   25.5714 H   0  0  0  0  0  0  0  0  0  0  0  0
  -13.9438  -22.1116   26.4243 H   0  0  0  0  0  0  0  0  0  0  0  0
  -13.8579  -23.1275   25.0411 H   0  0  0  0  0  0  0  0  0  0  0  0
  -12.2255  -21.7085   27.7652 H   0  0  0  0  0  0  0  0  0  0  0  0
  -10.5887  -22.3208   27.8672 H   0  0  0  0  0  0  0  0  0  0  0  0
  -11.1931  -23.6911   29.4961 H   0  0  0  0  0  0  0  0  0  0  0  0
  -13.7933  -26.0457   26.6073 H   0  0  0  0  0  0  0  0  0  0  0  0
  -13.7307  -25.1656   25.1377 H   0  0  0  0  0  0  0  0  0  0  0  0
  1  2  1  0
  2  3  1  0
  3  4  2  0
  3  5  1  0
  5  6  1  0
  6  7  1  0
  7  8  1  0
  8  9  2  0
  9 10  1  0
 10 11  2  0
 11 12  1  0
  2 13  1  0
 13 14  1  0
 14 15  1  0
 15 16  1  0
 16 17  1  0
 17 18  2  0
 17 19  1  0
 19 20  1  0
 16 21  1  0
 12  8  1  0
 21 13  1  0
  1 22  1  0
  1 23  1  0
  1 24  1  0
  5 25  1  0
  5 26  1  0
  7 27  1  0
  7 28  1  0
 10 29  1  0
 11 30  1  0
 12 31  1  0
 13 32  1  0
 14 33  1  0
 14 34  1  0
 15 35  1  0
 15 36  1  0
 19 37  1  0
 19 38  1  0
 20 39  1  0
 21 40  1  0
 21 41  1  0
M  END
>  <Energy>  (1286) 
196.66659403162103

>  <compound_id>  (1286) 
18095

>  <target_id>  (1286) 
1

>  <reference_id>  (1286) 
3

>  <inspiration_ids>  (1286) 
[3, 115]

>  <energy_score>  (1286) 
87.0545537345202

>  <distance_score>  (1286) 
3.6560114549861162

>  <path>  (1286) 
/opt/xchem-fragalysis-2/maxwin/BulkDock/SCRATCH/511020/C18095-P3/C18095-P3.minimised.mol

>  <scratch_subdir>  (1286) 
/opt/xchem-fragalysis-2/maxwin/BulkDock/SCRATCH/511020/C18095-P3

>  <fragmenstein_runtime>  (1286) 
7.201028108596802

>  <fragmenstein_outcome>  (1286) 
too moved

>  <fragmenstein_mode>  (1286) 
expansion

>  <fragmenstein_error>  (1286) 


$$$$
C18095-P115
     RDKit          3D

 41 42  0  0  0  0  0  0  0  0999 V2000
  -12.9476  -27.7883   28.5919 C   0  0  0  0  0  0  0  0  0  0  0  0
  -11.6912  -27.0067   28.7593 N   0  0  0  0  0  0  0  0  0  0  0  0
  -11.8168  -26.1060   29.8400 C   0  0  0  0  0  0  0  0  0  0  0  0
  -12.1925  -24.9715   29.8694 O   0  0  0  0  0  0  0  0  0  0  0  0
  -11.2867  -26.7521   31.0323 C   0  0  0  0  0  0  0  0  0  0  0  0
   -9.5895  -26.9704   31.4599 S   0  0  0  0  0  0  0  0  0  0  0  0
   -9.1294  -25.2786   31.7470 C   0  0  0  0  0  0  0  0  0  0  0  0
   -9.9869  -24.5702   32.7072 C   0  0  0  0  0  0  0  0  0  0  0  0
  -10.6446  -23.4614   32.4648 N   0  0  0  0  0  0  0  0  0  0  0  0
  -11.3713  -23.2150   33.5868 C   0  0  0  0  0  0  0  0  0  0  0  0
  -11.1349  -24.1740   34.5392 C   0  0  0  0  0  0  0  0  0  0  0  0
  -10.2226  -25.0157   33.9803 N   0  0  0  0  0  0  0  0  0  0  0  0
  -11.8765  -26.8036   27.2990 C   0  0  0  0  0  0  0  0  0  0  0  0
  -12.6795  -25.7390   26.5127 C   0  0  0  0  0  0  0  0  0  0  0  0
  -11.7101  -24.5200   26.4453 C   0  0  0  0  0  0  0  0  0  0  0  0
  -11.0523  -24.6496   27.7547 N   0  0  0  0  0  0  0  0  0  0  0  0
  -10.3048  -23.5288   28.0472 C   0  0  0  0  0  0  0  0  0  0  0  0
   -9.1575  -23.2821   27.8220 O   0  0  0  0  0  0  0  0  0  0  0  0
  -11.2067  -22.4045   28.6868 C   0  0  0  0  0  0  0  0  0  0  0  0
  -11.8499  -22.4860   29.9301 O   0  0  0  0  0  0  0  0  0  0  0  0
  -10.6603  -25.9503   27.1676 C   0  0  0  0  0  0  0  0  0  0  0  0
  -12.7133  -28.7886   28.2205 H   0  0  0  0  0  0  0  0  0  0  0  0
  -13.8191  -27.2937   28.1425 H   0  0  0  0  0  0  0  0  0  0  0  0
  -13.3209  -28.0295   29.5926 H   0  0  0  0  0  0  0  0  0  0  0  0
  -11.5722  -27.7874   30.8386 H   0  0  0  0  0  0  0  0  0  0  0  0
  -11.7857  -26.2513   31.8619 H   0  0  0  0  0  0  0  0  0  0  0  0
   -9.1678  -24.8080   30.7691 H   0  0  0  0  0  0  0  0  0  0  0  0
   -8.1043  -25.2632   32.1107 H   0  0  0  0  0  0  0  0  0  0  0  0
  -12.0345  -22.3647   33.6394 H   0  0  0  0  0  0  0  0  0  0  0  0
  -11.5337  -24.3344   35.5302 H   0  0  0  0  0  0  0  0  0  0  0  0
   -9.8443  -25.8565   34.3938 H   0  0  0  0  0  0  0  0  0  0  0  0
  -11.5495  -27.6790   26.7525 H   0  0  0  0  0  0  0  0  0  0  0  0
  -13.6059  -25.5012   27.0184 H   0  0  0  0  0  0  0  0  0  0  0  0
  -12.9286  -26.0693   25.4990 H   0  0  0  0  0  0  0  0  0  0  0  0
  -12.3176  -23.6095   26.4267 H   0  0  0  0  0  0  0  0  0  0  0  0
  -11.0568  -24.4174   25.5624 H   0  0  0  0  0  0  0  0  0  0  0  0
  -11.9505  -22.1218   27.9436 H   0  0  0  0  0  0  0  0  0  0  0  0
  -10.5552  -21.5440   28.7823 H   0  0  0  0  0  0  0  0  0  0  0  0
  -12.0943  -23.4346   30.0172 H   0  0  0  0  0  0  0  0  0  0  0  0
   -9.7893  -26.2932   27.7483 H   0  0  0  0  0  0  0  0  0  0  0  0
  -10.3320  -26.0343   26.1341 H   0  0  0  0  0  0  0  0  0  0  0  0
  1  2  1  0
  2  3  1  0
  3  4  2  0
  3  5  1  0
  5  6  1  0
  6  7  1  0
  7  8  1  0
  8  9  2  0
  9 10  1  0
 10 11  2  0
 11 12  1  0
  2 13  1  0
 13 14  1  0
 14 15  1  0
 15 16  1  0
 16 17  1  0
 17 18  2  0
 17 19  1  0
 19 20  1  0
 16 21  1  0
 12  8  1  0
 21 13  1  0
  1 22  1  0
  1 23  1  0
  1 24  1  0
  5 25  1  0
  5 26  1  0
  7 27  1  0
  7 28  1  0
 10 29  1  0
 11 30  1  0
 12 31  1  0
 13 32  1  0
 14 33  1  0
 14 34  1  0
 15 35  1  0
 15 36  1  0
 19 37  1  0
 19 38  1  0
 20 39  1  0
 21 40  1  0
 21 41  1  0
M  END
>  <Energy>  (1287) 
250.49555877919386

>  <compound_id>  (1287) 
18095

>  <target_id>  (1287) 
1

>  <reference_id>  (1287) 
115

>  <inspiration_ids>  (1287) 
[3, 115]

>  <energy_score>  (1287) 
140.88351848209578

>  <distance_score>  (1287) 
3.366145538328351

>  <path>  (1287) 
/opt/xchem-fragalysis-2/maxwin/BulkDock/SCRATCH/511020/C18095-P115/C18095-P115.minimised.mol

>  <scratch_subdir>  (1287) 
/opt/xchem-fragalysis-2/maxwin/BulkDock/SCRATCH/511020/C18095-P115

>  <fragmenstein_runtime>  (1287) 
5.71891450881958

>  <fragmenstein_outcome>  (1287) 
too moved

>  <fragmenstein_mode>  (1287) 
expansion

>  <fragmenstein_error>  (1287) 


$$$$
C18096-P3
     RDKit          3D

 41 42  0  0  0  0  0  0  0  0999 V2000
  -11.5129  -27.0300   27.7493 O   0  0  0  0  0  0  0  0  0  0  0  0
  -12.3486  -27.0926   28.6084 C   0  0  0  0  0  0  0  0  0  0  0  0
  -12.1421  -28.1132   29.7464 C   0  0  0  0  0  0  0  0  0  0  0  0
  -13.2495  -27.9438   31.1980 S   0  0  0  0  0  0  0  0  0  0  0  0
  -12.1945  -26.9782   32.3375 C   0  0  0  0  0  0  0  0  0  0  0  0
  -11.5721  -25.7673   31.7170 C   0  0  0  0  0  0  0  0  0  0  0  0
  -12.0358  -25.0890   30.6923 N   0  0  0  0  0  0  0  0  0  0  0  0
  -11.0398  -24.2259   30.3351 C   0  0  0  0  0  0  0  0  0  0  0  0
  -10.0432  -24.2065   31.2682 C   0  0  0  0  0  0  0  0  0  0  0  0
  -10.4098  -25.1598   32.1741 N   0  0  0  0  0  0  0  0  0  0  0  0
  -13.6101  -26.4271   28.7365 N   0  0  0  0  0  0  0  0  0  0  0  0
  -14.3130  -25.5510   27.8361 C   0  0  0  0  0  0  0  0  0  0  0  0
  -13.4923  -24.7716   26.7682 C   0  0  0  0  0  0  0  0  0  0  0  0
  -14.3256  -24.5803   25.4974 C   0  0  0  0  0  0  0  0  0  0  0  0
  -14.1848  -23.1252   25.3048 C   0  0  0  0  0  0  0  0  0  0  0  0
  -13.9183  -22.8363   26.7439 C   0  0  0  0  0  0  0  0  0  0  0  0
  -12.7354  -23.5340   27.2987 N   0  0  0  0  0  0  0  0  0  0  0  0
  -11.5370  -22.9061   26.8401 C   0  0  0  0  0  0  0  0  0  0  0  0
  -10.8604  -23.1274   25.8700 O   0  0  0  0  0  0  0  0  0  0  0  0
  -11.1784  -21.6836   27.7535 C   0  0  0  0  0  0  0  0  0  0  0  0
  -11.7920  -21.5050   29.0176 O   0  0  0  0  0  0  0  0  0  0  0  0
  -12.3342  -29.1019   29.3159 H   0  0  0  0  0  0  0  0  0  0  0  0
  -11.0999  -28.0851   30.0623 H   0  0  0  0  0  0  0  0  0  0  0  0
  -12.8408  -26.6758   33.1631 H   0  0  0  0  0  0  0  0  0  0  0  0
  -11.4511  -27.6539   32.7676 H   0  0  0  0  0  0  0  0  0  0  0  0
  -11.1027  -23.6540   29.4315 H   0  0  0  0  0  0  0  0  0  0  0  0
   -9.1227  -23.6470   31.3580 H   0  0  0  0  0  0  0  0  0  0  0  0
   -9.8632  -25.4176   32.9890 H   0  0  0  0  0  0  0  0  0  0  0  0
  -14.0166  -26.6598   29.6394 H   0  0  0  0  0  0  0  0  0  0  0  0
  -14.8906  -24.8663   28.4654 H   0  0  0  0  0  0  0  0  0  0  0  0
  -15.0324  -26.2111   27.3378 H   0  0  0  0  0  0  0  0  0  0  0  0
  -12.6699  -25.4229   26.4497 H   0  0  0  0  0  0  0  0  0  0  0  0
  -15.3781  -24.8508   25.6469 H   0  0  0  0  0  0  0  0  0  0  0  0
  -13.9644  -25.1799   24.6635 H   0  0  0  0  0  0  0  0  0  0  0  0
  -15.0898  -22.6270   24.9498 H   0  0  0  0  0  0  0  0  0  0  0  0
  -13.3468  -22.8576   24.6556 H   0  0  0  0  0  0  0  0  0  0  0  0
  -13.6790  -21.7692   26.7925 H   0  0  0  0  0  0  0  0  0  0  0  0
  -14.8077  -22.9756   27.3753 H   0  0  0  0  0  0  0  0  0  0  0  0
  -10.1027  -21.7265   27.9342 H   0  0  0  0  0  0  0  0  0  0  0  0
  -11.4097  -20.7901   27.1651 H   0  0  0  0  0  0  0  0  0  0  0  0
  -11.5780  -20.5984   29.3097 H   0  0  0  0  0  0  0  0  0  0  0  0
  1  2  2  0
  2  3  1  0
  3  4  1  0
  4  5  1  0
  5  6  1  0
  6  7  2  0
  7  8  1  0
  8  9  2  0
  9 10  1  0
  2 11  1  0
 11 12  1  0
 12 13  1  0
 13 14  1  0
 14 15  1  0
 15 16  1  0
 16 17  1  0
 17 18  1  0
 18 19  2  0
 18 20  1  0
 20 21  1  0
 10  6  1  0
 17 13  1  0
  3 22  1  0
  3 23  1  0
  5 24  1  0
  5 25  1  0
  8 26  1  0
  9 27  1  0
 10 28  1  0
 11 29  1  0
 12 30  1  0
 12 31  1  0
 13 32  1  0
 14 33  1  0
 14 34  1  0
 15 35  1  0
 15 36  1  0
 16 37  1  0
 16 38  1  0
 20 39  1  0
 20 40  1  0
 21 41  1  0
M  END
>  <Energy>  (1288) 
144.89383302825053

>  <compound_id>  (1288) 
18096

>  <target_id>  (1288) 
1

>  <reference_id>  (1288) 
3

>  <inspiration_ids>  (1288) 
[3, 115]

>  <energy_score>  (1288) 
17.59648536168399

>  <distance_score>  (1288) 
2.709355494211889

>  <path>  (1288) 
/opt/xchem-fragalysis-2/maxwin/BulkDock/SCRATCH/511020/C18096-P3/C18096-P3.minimised.mol

>  <scratch_subdir>  (1288) 
/opt/xchem-fragalysis-2/maxwin/BulkDock/SCRATCH/511020/C18096-P3

>  <fragmenstein_runtime>  (1288) 
9.882047414779663

>  <fragmenstein_outcome>  (1288) 
too moved

>  <fragmenstein_mode>  (1288) 
expansion

>  <fragmenstein_error>  (1288) 


$$$$
C18096-P115
     RDKit          3D

 41 42  0  0  0  0  0  0  0  0999 V2000
  -10.1075  -26.9757   30.4684 O   0  0  0  0  0  0  0  0  0  0  0  0
  -10.9829  -26.1688   30.3657 C   0  0  0  0  0  0  0  0  0  0  0  0
  -11.2288  -25.1546   31.4913 C   0  0  0  0  0  0  0  0  0  0  0  0
   -9.7461  -24.6365   32.3617 S   0  0  0  0  0  0  0  0  0  0  0  0
   -9.9699  -25.5178   33.9246 C   0  0  0  0  0  0  0  0  0  0  0  0
   -9.4572  -26.9156   33.9174 C   0  0  0  0  0  0  0  0  0  0  0  0
   -9.5943  -27.7942   34.8929 N   0  0  0  0  0  0  0  0  0  0  0  0
   -8.8857  -28.8986   34.5083 C   0  0  0  0  0  0  0  0  0  0  0  0
   -8.3094  -28.6993   33.2846 C   0  0  0  0  0  0  0  0  0  0  0  0
   -8.7192  -27.4592   32.8957 N   0  0  0  0  0  0  0  0  0  0  0  0
  -11.9736  -25.9821   29.3347 N   0  0  0  0  0  0  0  0  0  0  0  0
  -12.1581  -26.6498   28.0584 C   0  0  0  0  0  0  0  0  0  0  0  0
  -11.9423  -25.6742   26.8446 C   0  0  0  0  0  0  0  0  0  0  0  0
  -13.0942  -25.8164   25.8375 C   0  0  0  0  0  0  0  0  0  0  0  0
  -13.2870  -24.3963   25.4611 C   0  0  0  0  0  0  0  0  0  0  0  0
  -11.9785  -23.9002   25.9833 C   0  0  0  0  0  0  0  0  0  0  0  0
  -11.8927  -24.2768   27.4336 N   0  0  0  0  0  0  0  0  0  0  0  0
  -10.8315  -23.5705   28.0639 C   0  0  0  0  0  0  0  0  0  0  0  0
   -9.6795  -23.8654   28.2107 O   0  0  0  0  0  0  0  0  0  0  0  0
  -11.4772  -22.2800   28.6847 C   0  0  0  0  0  0  0  0  0  0  0  0
  -10.9562  -21.5140   29.7453 O   0  0  0  0  0  0  0  0  0  0  0  0
  -11.6661  -24.2390   31.0888 H   0  0  0  0  0  0  0  0  0  0  0  0
  -11.9191  -25.6009   32.1990 H   0  0  0  0  0  0  0  0  0  0  0  0
  -11.0151  -25.4749   34.2382 H   0  0  0  0  0  0  0  0  0  0  0  0
   -9.4117  -24.9505   34.6723 H   0  0  0  0  0  0  0  0  0  0  0  0
   -8.8114  -29.7704   35.1442 H   0  0  0  0  0  0  0  0  0  0  0  0
   -7.6596  -29.3038   32.6737 H   0  0  0  0  0  0  0  0  0  0  0  0
   -8.5151  -27.0016   32.0143 H   0  0  0  0  0  0  0  0  0  0  0  0
  -12.5062  -25.1427   29.5348 H   0  0  0  0  0  0  0  0  0  0  0  0
  -11.4761  -27.4953   27.9948 H   0  0  0  0  0  0  0  0  0  0  0  0
  -13.1791  -27.0426   28.0805 H   0  0  0  0  0  0  0  0  0  0  0  0
  -10.9617  -25.9468   26.4230 H   0  0  0  0  0  0  0  0  0  0  0  0
  -14.0127  -26.2490   26.2410 H   0  0  0  0  0  0  0  0  0  0  0  0
  -12.7693  -26.4100   24.9802 H   0  0  0  0  0  0  0  0  0  0  0  0
  -14.1120  -23.9571   25.9888 H   0  0  0  0  0  0  0  0  0  0  0  0
  -13.5559  -24.1693   24.4385 H   0  0  0  0  0  0  0  0  0  0  0  0
  -11.0897  -24.1847   25.3939 H   0  0  0  0  0  0  0  0  0  0  0  0
  -11.9795  -22.8140   25.9409 H   0  0  0  0  0  0  0  0  0  0  0  0
  -11.6658  -21.6244   27.8437 H   0  0  0  0  0  0  0  0  0  0  0  0
  -12.4373  -22.5653   29.0899 H   0  0  0  0  0  0  0  0  0  0  0  0
  -10.9946  -22.0641   30.5467 H   0  0  0  0  0  0  0  0  0  0  0  0
  1  2  2  0
  2  3  1  0
  3  4  1  0
  4  5  1  0
  5  6  1  0
  6  7  2  0
  7  8  1  0
  8  9  2  0
  9 10  1  0
  2 11  1  0
 11 12  1  0
 12 13  1  0
 13 14  1  0
 14 15  1  0
 15 16  1  0
 16 17  1  0
 17 18  1  0
 18 19  2  0
 18 20  1  0
 20 21  1  0
 10  6  1  0
 17 13  1  0
  3 22  1  0
  3 23  1  0
  5 24  1  0
  5 25  1  0
  8 26  1  0
  9 27  1  0
 10 28  1  0
 11 29  1  0
 12 30  1  0
 12 31  1  0
 13 32  1  0
 14 33  1  0
 14 34  1  0
 15 35  1  0
 15 36  1  0
 16 37  1  0
 16 38  1  0
 20 39  1  0
 20 40  1  0
 21 41  1  0
M  END
>  <Energy>  (1289) 
136.49353634646141

>  <compound_id>  (1289) 
18096

>  <target_id>  (1289) 
1

>  <reference_id>  (1289) 
115

>  <inspiration_ids>  (1289) 
[3, 115]

>  <energy_score>  (1289) 
9.19618867989459

>  <distance_score>  (1289) 
3.378566931570691

>  <path>  (1289) 
/opt/xchem-fragalysis-2/maxwin/BulkDock/SCRATCH/511020/C18096-P115/C18096-P115.minimised.mol

>  <scratch_subdir>  (1289) 
/opt/xchem-fragalysis-2/maxwin/BulkDock/SCRATCH/511020/C18096-P115

>  <fragmenstein_runtime>  (1289) 
7.005792856216431

>  <fragmenstein_outcome>  (1289) 
too moved

>  <fragmenstein_mode>  (1289) 
expansion

>  <fragmenstein_error>  (1289) 


$$$$
C46385-P3
     RDKit          3D

 43 44  0  0  0  0  0  0  0  0999 V2000
  -16.7709  -27.0464   37.1203 C   0  0  0  0  0  0  0  0  0  0  0  0
  -15.9076  -27.4498   36.0463 N   0  0  0  0  0  0  0  0  0  0  0  0
  -14.4589  -27.7523   36.0328 C   0  0  0  0  0  0  0  0  0  0  0  0
  -13.6908  -27.8080   36.9151 O   0  0  0  0  0  0  0  0  0  0  0  0
  -14.2645  -27.9785   34.5814 N   0  0  0  0  0  0  0  0  0  0  0  0
  -13.1045  -28.4239   33.8437 C   0  0  0  0  0  0  0  0  0  0  0  0
  -13.3601  -28.6497   32.3464 C   0  0  0  0  0  0  0  0  0  0  0  0
  -13.0338  -29.6962   31.8685 O   0  0  0  0  0  0  0  0  0  0  0  0
  -13.8988  -27.4672   31.7343 N   0  0  0  0  0  0  0  0  0  0  0  0
  -14.3014  -27.2069   30.3718 C   0  0  0  0  0  0  0  0  0  0  0  0
  -14.9343  -25.8884   30.1080 C   0  0  0  0  0  0  0  0  0  0  0  0
  -14.1729  -25.5299   28.8505 C   0  0  0  0  0  0  0  0  0  0  0  0
  -12.6898  -25.7115   29.0518 N   0  0  0  0  0  0  0  0  0  0  0  0
  -11.9687  -25.2102   27.9183 C   0  0  0  0  0  0  0  0  0  0  0  0
  -11.6109  -25.7680   26.9075 O   0  0  0  0  0  0  0  0  0  0  0  0
  -11.6956  -23.6763   28.0240 C   0  0  0  0  0  0  0  0  0  0  0  0
  -12.8244  -22.9447   27.5322 O   0  0  0  0  0  0  0  0  0  0  0  0
  -11.2588  -23.1480   29.3734 C   0  0  0  0  0  0  0  0  0  0  0  0
  -10.5090  -23.6941   30.3971 C   0  0  0  0  0  0  0  0  0  0  0  0
  -10.2868  -22.6767   31.2901 N   0  0  0  0  0  0  0  0  0  0  0  0
  -10.9657  -21.5834   30.8351 C   0  0  0  0  0  0  0  0  0  0  0  0
  -11.5763  -21.8375   29.6975 N   0  0  0  0  0  0  0  0  0  0  0  0
  -13.1330  -27.1110   29.3956 C   0  0  0  0  0  0  0  0  0  0  0  0
  -16.2712  -27.2167   38.0765 H   0  0  0  0  0  0  0  0  0  0  0  0
  -16.9930  -25.9832   37.0035 H   0  0  0  0  0  0  0  0  0  0  0  0
  -17.6947  -27.6256   37.0626 H   0  0  0  0  0  0  0  0  0  0  0  0
  -16.2444  -27.4051   35.1065 H   0  0  0  0  0  0  0  0  0  0  0  0
  -15.1151  -27.7692   34.0973 H   0  0  0  0  0  0  0  0  0  0  0  0
  -12.7670  -29.3579   34.3041 H   0  0  0  0  0  0  0  0  0  0  0  0
  -12.3035  -27.6895   33.9593 H   0  0  0  0  0  0  0  0  0  0  0  0
  -13.9799  -26.7391   32.4366 H   0  0  0  0  0  0  0  0  0  0  0  0
  -14.9435  -28.0446   30.0761 H   0  0  0  0  0  0  0  0  0  0  0  0
  -14.7527  -25.1693   30.9106 H   0  0  0  0  0  0  0  0  0  0  0  0
  -16.0123  -25.9528   29.9354 H   0  0  0  0  0  0  0  0  0  0  0  0
  -14.3506  -24.4669   28.6561 H   0  0  0  0  0  0  0  0  0  0  0  0
  -14.5346  -26.0325   27.9359 H   0  0  0  0  0  0  0  0  0  0  0  0
  -10.8838  -23.4530   27.3234 H   0  0  0  0  0  0  0  0  0  0  0  0
  -12.6800  -22.0413   27.8793 H   0  0  0  0  0  0  0  0  0  0  0  0
  -10.0723  -24.6697   30.5513 H   0  0  0  0  0  0  0  0  0  0  0  0
   -9.7375  -22.7267   32.1404 H   0  0  0  0  0  0  0  0  0  0  0  0
  -10.9932  -20.6448   31.3768 H   0  0  0  0  0  0  0  0  0  0  0  0
  -13.3167  -27.6752   28.4646 H   0  0  0  0  0  0  0  0  0  0  0  0
  -12.2367  -27.5901   29.8129 H   0  0  0  0  0  0  0  0  0  0  0  0
  1  2  1  0
  2  3  1  0
  3  4  2  0
  3  5  1  0
  5  6  1  0
  6  7  1  0
  7  8  2  0
  7  9  1  0
  9 10  1  0
 10 11  1  0
 11 12  1  0
 12 13  1  0
 13 14  1  0
 14 15  2  0
 14 16  1  0
 16 17  1  0
 16 18  1  0
 18 19  2  0
 19 20  1  0
 20 21  1  0
 21 22  2  0
 13 23  1  0
 23 10  1  0
 22 18  1  0
  1 24  1  0
  1 25  1  0
  1 26  1  0
  2 27  1  0
  5 28  1  0
  6 29  1  0
  6 30  1  0
  9 31  1  0
 10 32  1  0
 11 33  1  0
 11 34  1  0
 12 35  1  0
 12 36  1  0
 16 37  1  0
 17 38  1  0
 19 39  1  0
 20 40  1  0
 21 41  1  0
 23 42  1  0
 23 43  1  0
M  END
>  <Energy>  (1290) 
83.468237398285225

>  <compound_id>  (1290) 
46385

>  <target_id>  (1290) 
1

>  <reference_id>  (1290) 
3

>  <inspiration_ids>  (1290) 
[3, 115]

>  <energy_score>  (1290) 
47.34754241843521

>  <distance_score>  (1290) 
4.513694707576792

>  <path>  (1290) 
/opt/xchem-fragalysis-2/maxwin/BulkDock/SCRATCH/511020/C46385-P3/C46385-P3.minimised.mol

>  <scratch_subdir>  (1290) 
/opt/xchem-fragalysis-2/maxwin/BulkDock/SCRATCH/511020/C46385-P3

>  <fragmenstein_runtime>  (1290) 
13.46556305885315

>  <fragmenstein_outcome>  (1290) 
too moved

>  <fragmenstein_mode>  (1290) 
expansion

>  <fragmenstein_error>  (1290) 


$$$$
C46385-P115
     RDKit          3D

 43 44  0  0  0  0  0  0  0  0999 V2000
  -11.8429  -24.2647   35.7161 C   0  0  0  0  0  0  0  0  0  0  0  0
  -11.0176  -25.2892   35.2993 N   0  0  0  0  0  0  0  0  0  0  0  0
  -10.7187  -25.7739   33.9917 C   0  0  0  0  0  0  0  0  0  0  0  0
  -11.1586  -25.4728   32.9578 O   0  0  0  0  0  0  0  0  0  0  0  0
   -9.6371  -26.6841   34.3231 N   0  0  0  0  0  0  0  0  0  0  0  0
   -8.8708  -27.5322   33.5104 C   0  0  0  0  0  0  0  0  0  0  0  0
   -9.1904  -27.2833   32.1006 C   0  0  0  0  0  0  0  0  0  0  0  0
   -8.3600  -28.2791   31.1740 O   0  0  0  0  0  0  0  0  0  0  0  0
   -9.8194  -26.7755   31.3887 N   0  0  0  0  0  0  0  0  0  0  0  0
  -10.1073  -26.6234   29.8578 C   0  0  0  0  0  0  0  0  0  0  0  0
  -11.5382  -26.7697   29.4348 C   0  0  0  0  0  0  0  0  0  0  0  0
  -11.8434  -25.3098   29.1432 C   0  0  0  0  0  0  0  0  0  0  0  0
  -10.8793  -24.3328   29.7727 N   0  0  0  0  0  0  0  0  0  0  0  0
  -11.2020  -22.9997   29.3888 C   0  0  0  0  0  0  0  0  0  0  0  0
  -10.8180  -22.3405   28.4550 O   0  0  0  0  0  0  0  0  0  0  0  0
  -12.1225  -22.2647   30.4278 C   0  0  0  0  0  0  0  0  0  0  0  0
  -13.4734  -22.6179   30.5433 O   0  0  0  0  0  0  0  0  0  0  0  0
  -11.4877  -22.0638   31.7921 C   0  0  0  0  0  0  0  0  0  0  0  0
  -10.5348  -22.7794   32.4764 C   0  0  0  0  0  0  0  0  0  0  0  0
  -10.2080  -22.0542   33.5848 N   0  0  0  0  0  0  0  0  0  0  0  0
  -11.0105  -20.9608   33.5945 C   0  0  0  0  0  0  0  0  0  0  0  0
  -11.8287  -20.9739   32.5704 N   0  0  0  0  0  0  0  0  0  0  0  0
   -9.9027  -25.2808   29.2219 C   0  0  0  0  0  0  0  0  0  0  0  0
  -12.0874  -24.4426   36.7575 H   0  0  0  0  0  0  0  0  0  0  0  0
  -12.6816  -24.2435   35.0312 H   0  0  0  0  0  0  0  0  0  0  0  0
  -11.2399  -23.3735   35.5891 H   0  0  0  0  0  0  0  0  0  0  0  0
  -10.4027  -25.7038   35.9458 H   0  0  0  0  0  0  0  0  0  0  0  0
   -9.5755  -26.7732   35.3064 H   0  0  0  0  0  0  0  0  0  0  0  0
   -9.1191  -28.5654   33.7664 H   0  0  0  0  0  0  0  0  0  0  0  0
   -7.8147  -27.3434   33.7095 H   0  0  0  0  0  0  0  0  0  0  0  0
  -10.5556  -26.1688   31.1148 H   0  0  0  0  0  0  0  0  0  0  0  0
   -9.4488  -27.2979   29.3478 H   0  0  0  0  0  0  0  0  0  0  0  0
  -12.1612  -27.2142   30.2020 H   0  0  0  0  0  0  0  0  0  0  0  0
  -11.6580  -27.3588   28.5198 H   0  0  0  0  0  0  0  0  0  0  0  0
  -12.8264  -25.0841   29.5190 H   0  0  0  0  0  0  0  0  0  0  0  0
  -11.9316  -25.1185   28.0581 H   0  0  0  0  0  0  0  0  0  0  0  0
  -12.1480  -21.2613   29.9917 H   0  0  0  0  0  0  0  0  0  0  0  0
  -13.6399  -23.0169   29.6659 H   0  0  0  0  0  0  0  0  0  0  0  0
  -10.0085  -23.6888   32.2396 H   0  0  0  0  0  0  0  0  0  0  0  0
   -9.5034  -22.2888   34.2692 H   0  0  0  0  0  0  0  0  0  0  0  0
  -10.9619  -20.1984   34.3599 H   0  0  0  0  0  0  0  0  0  0  0  0
   -9.8434  -25.2603   28.1199 H   0  0  0  0  0  0  0  0  0  0  0  0
   -8.9273  -24.9253   29.5424 H   0  0  0  0  0  0  0  0  0  0  0  0
  1  2  1  0
  2  3  1  0
  3  4  2  0
  3  5  1  0
  5  6  1  0
  6  7  1  0
  7  8  2  0
  7  9  1  0
  9 10  1  0
 10 11  1  0
 11 12  1  0
 12 13  1  0
 13 14  1  0
 14 15  2  0
 14 16  1  0
 16 17  1  0
 16 18  1  0
 18 19  2  0
 19 20  1  0
 20 21  1  0
 21 22  2  0
 13 23  1  0
 23 10  1  0
 22 18  1  0
  1 24  1  0
  1 25  1  0
  1 26  1  0
  2 27  1  0
  5 28  1  0
  6 29  1  0
  6 30  1  0
  9 31  1  0
 10 32  1  0
 11 33  1  0
 11 34  1  0
 12 35  1  0
 12 36  1  0
 16 37  1  0
 17 38  1  0
 19 39  1  0
 20 40  1  0
 21 41  1  0
 23 42  1  0
 23 43  1  0
M  END
>  <Energy>  (1291) 
306.71304957915686

>  <compound_id>  (1291) 
46385

>  <target_id>  (1291) 
1

>  <reference_id>  (1291) 
115

>  <inspiration_ids>  (1291) 
[3, 115]

>  <energy_score>  (1291) 
270.5923545993121

>  <distance_score>  (1291) 
3.2918802163662457

>  <path>  (1291) 
/opt/xchem-fragalysis-2/maxwin/BulkDock/SCRATCH/511020/C46385-P115/C46385-P115.minimised.mol

>  <scratch_subdir>  (1291) 
/opt/xchem-fragalysis-2/maxwin/BulkDock/SCRATCH/511020/C46385-P115

>  <fragmenstein_runtime>  (1291) 
13.210682153701782

>  <fragmenstein_outcome>  (1291) 
too moved

>  <fragmenstein_mode>  (1291) 
expansion

>  <fragmenstein_error>  (1291) 


$$$$
C46387-P3
     RDKit          3D

 44 45  0  0  0  0  0  0  0  0999 V2000
  -12.0462  -26.5092   26.7448 C   0  0  0  0  0  0  0  0  0  0  0  0
  -12.4393  -26.5390   28.1620 N   0  0  0  0  0  0  0  0  0  0  0  0
  -13.7517  -26.0500   27.5788 C   0  0  0  0  0  0  0  0  0  0  0  0
  -14.0707  -24.5882   27.0643 C   0  0  0  0  0  0  0  0  0  0  0  0
  -14.4268  -24.5839   25.5827 C   0  0  0  0  0  0  0  0  0  0  0  0
  -14.2712  -23.1343   25.2889 C   0  0  0  0  0  0  0  0  0  0  0  0
  -14.0961  -22.6556   26.6968 C   0  0  0  0  0  0  0  0  0  0  0  0
  -13.1223  -23.4629   27.4691 N   0  0  0  0  0  0  0  0  0  0  0  0
  -11.7815  -23.1611   27.0413 C   0  0  0  0  0  0  0  0  0  0  0  0
  -11.1001  -23.6684   26.1892 O   0  0  0  0  0  0  0  0  0  0  0  0
  -11.2438  -21.9998   27.9207 C   0  0  0  0  0  0  0  0  0  0  0  0
  -11.5862  -22.0950   29.2992 O   0  0  0  0  0  0  0  0  0  0  0  0
  -12.0437  -25.7091   29.2607 C   0  0  0  0  0  0  0  0  0  0  0  0
  -11.3577  -24.7190   29.2878 O   0  0  0  0  0  0  0  0  0  0  0  0
  -12.6214  -26.2452   30.5774 C   0  0  0  0  0  0  0  0  0  0  0  0
  -13.9196  -25.6948   30.8223 O   0  0  0  0  0  0  0  0  0  0  0  0
  -12.6538  -27.7702   30.5819 C   0  0  0  0  0  0  0  0  0  0  0  0
  -12.8772  -28.2812   31.9518 C   0  0  0  0  0  0  0  0  0  0  0  0
  -13.8494  -29.1341   32.4188 C   0  0  0  0  0  0  0  0  0  0  0  0
  -13.5833  -29.2807   33.7507 N   0  0  0  0  0  0  0  0  0  0  0  0
  -12.4848  -28.5260   34.0328 C   0  0  0  0  0  0  0  0  0  0  0  0
  -12.0574  -27.8859   32.9733 N   0  0  0  0  0  0  0  0  0  0  0  0
  -12.0510  -25.5711   26.2140 H   0  0  0  0  0  0  0  0  0  0  0  0
  -10.9780  -26.7336   26.7901 H   0  0  0  0  0  0  0  0  0  0  0  0
  -12.5033  -27.3073   26.1475 H   0  0  0  0  0  0  0  0  0  0  0  0
  -14.2410  -26.8128   26.9431 H   0  0  0  0  0  0  0  0  0  0  0  0
  -14.4058  -26.1356   28.4616 H   0  0  0  0  0  0  0  0  0  0  0  0
  -15.0118  -24.4181   27.6272 H   0  0  0  0  0  0  0  0  0  0  0  0
  -15.4552  -24.9335   25.4387 H   0  0  0  0  0  0  0  0  0  0  0  0
  -13.7851  -25.2060   24.9631 H   0  0  0  0  0  0  0  0  0  0  0  0
  -13.3934  -22.9294   24.6695 H   0  0  0  0  0  0  0  0  0  0  0  0
  -15.1430  -22.6585   24.8356 H   0  0  0  0  0  0  0  0  0  0  0  0
  -15.0635  -22.5844   27.2109 H   0  0  0  0  0  0  0  0  0  0  0  0
  -13.6802  -21.6435   26.6305 H   0  0  0  0  0  0  0  0  0  0  0  0
  -10.1558  -21.9830   27.8517 H   0  0  0  0  0  0  0  0  0  0  0  0
  -11.6236  -21.0512   27.5306 H   0  0  0  0  0  0  0  0  0  0  0  0
  -11.3276  -23.0139   29.5389 H   0  0  0  0  0  0  0  0  0  0  0  0
  -11.9567  -25.8741   31.3682 H   0  0  0  0  0  0  0  0  0  0  0  0
  -14.1497  -25.9517   31.7352 H   0  0  0  0  0  0  0  0  0  0  0  0
  -13.4606  -28.1413   29.9374 H   0  0  0  0  0  0  0  0  0  0  0  0
  -11.7106  -28.1839   30.2055 H   0  0  0  0  0  0  0  0  0  0  0  0
  -14.6674  -29.6473   31.9327 H   0  0  0  0  0  0  0  0  0  0  0  0
  -14.0830  -29.8716   34.4010 H   0  0  0  0  0  0  0  0  0  0  0  0
  -12.0354  -28.4919   35.0129 H   0  0  0  0  0  0  0  0  0  0  0  0
  1  2  1  0
  2  3  1  0
  3  4  1  0
  4  5  1  0
  5  6  1  0
  6  7  1  0
  7  8  1  0
  8  9  1  0
  9 10  2  0
  9 11  1  0
 11 12  1  0
  2 13  1  0
 13 14  2  0
 13 15  1  0
 15 16  1  0
 15 17  1  0
 17 18  1  0
 18 19  2  0
 19 20  1  0
 20 21  1  0
 21 22  2  0
  8  4  1  0
 22 18  1  0
  1 23  1  0
  1 24  1  0
  1 25  1  0
  3 26  1  0
  3 27  1  0
  4 28  1  0
  5 29  1  0
  5 30  1  0
  6 31  1  0
  6 32  1  0
  7 33  1  0
  7 34  1  0
 11 35  1  0
 11 36  1  0
 12 37  1  0
 15 38  1  0
 16 39  1  0
 17 40  1  0
 17 41  1  0
 19 42  1  0
 20 43  1  0
 21 44  1  0
M  END
>  <Energy>  (1292) 
217.13910377876266

>  <compound_id>  (1292) 
46387

>  <target_id>  (1292) 
1

>  <reference_id>  (1292) 
3

>  <inspiration_ids>  (1292) 
[3, 115]

>  <energy_score>  (1292) 
106.66637455291573

>  <distance_score>  (1292) 
3.9298504184931042

>  <path>  (1292) 
/opt/xchem-fragalysis-2/maxwin/BulkDock/SCRATCH/511020/C46387-P3/C46387-P3.minimised.mol

>  <scratch_subdir>  (1292) 
/opt/xchem-fragalysis-2/maxwin/BulkDock/SCRATCH/511020/C46387-P3

>  <fragmenstein_runtime>  (1292) 
9.03062915802002

>  <fragmenstein_outcome>  (1292) 
too moved

>  <fragmenstein_mode>  (1292) 
expansion

>  <fragmenstein_error>  (1292) 


$$$$
C46387-P115
     RDKit          3D

 44 45  0  0  0  0  0  0  0  0999 V2000
  -10.6309  -22.4372   28.1447 C   0  0  0  0  0  0  0  0  0  0  0  0
  -11.5817  -23.3738   27.6405 N   0  0  0  0  0  0  0  0  0  0  0  0
  -11.1413  -24.1414   28.8794 C   0  0  0  0  0  0  0  0  0  0  0  0
  -11.7902  -23.7547   30.2978 C   0  0  0  0  0  0  0  0  0  0  0  0
  -12.3798  -22.3678   30.5519 C   0  0  0  0  0  0  0  0  0  0  0  0
  -11.3894  -21.9084   31.5126 C   0  0  0  0  0  0  0  0  0  0  0  0
  -11.1264  -23.2445   32.1327 C   0  0  0  0  0  0  0  0  0  0  0  0
  -11.2001  -24.6052   31.4468 N   0  0  0  0  0  0  0  0  0  0  0  0
   -9.9452  -25.2757   31.5585 C   0  0  0  0  0  0  0  0  0  0  0  0
   -8.9939  -25.2749   30.8287 O   0  0  0  0  0  0  0  0  0  0  0  0
   -9.8441  -26.0154   32.9054 C   0  0  0  0  0  0  0  0  0  0  0  0
  -10.6046  -25.4520   33.9550 O   0  0  0  0  0  0  0  0  0  0  0  0
  -11.5377  -24.2201   26.4837 C   0  0  0  0  0  0  0  0  0  0  0  0
  -10.6523  -24.4209   25.6948 O   0  0  0  0  0  0  0  0  0  0  0  0
  -12.8864  -24.8543   26.2202 C   0  0  0  0  0  0  0  0  0  0  0  0
  -13.6724  -24.3718   25.1414 O   0  0  0  0  0  0  0  0  0  0  0  0
  -12.7691  -26.3348   26.2874 C   0  0  0  0  0  0  0  0  0  0  0  0
  -13.2099  -26.8957   27.6135 C   0  0  0  0  0  0  0  0  0  0  0  0
  -12.4375  -27.4828   28.5870 C   0  0  0  0  0  0  0  0  0  0  0  0
  -13.3125  -28.2083   29.3345 N   0  0  0  0  0  0  0  0  0  0  0  0
  -14.5731  -27.8484   28.9544 C   0  0  0  0  0  0  0  0  0  0  0  0
  -14.5459  -27.0191   27.9368 N   0  0  0  0  0  0  0  0  0  0  0  0
  -10.7844  -21.8676   29.0434 H   0  0  0  0  0  0  0  0  0  0  0  0
   -9.5955  -22.7860   28.0707 H   0  0  0  0  0  0  0  0  0  0  0  0
  -10.7996  -21.6598   27.4149 H   0  0  0  0  0  0  0  0  0  0  0  0
  -10.0702  -24.3985   28.9092 H   0  0  0  0  0  0  0  0  0  0  0  0
  -11.5187  -25.1504   28.7027 H   0  0  0  0  0  0  0  0  0  0  0  0
  -12.6869  -24.3229   30.1058 H   0  0  0  0  0  0  0  0  0  0  0  0
  -13.3415  -22.3442   31.0575 H   0  0  0  0  0  0  0  0  0  0  0  0
  -12.5240  -21.7253   29.6864 H   0  0  0  0  0  0  0  0  0  0  0  0
  -11.7803  -21.2030   32.2510 H   0  0  0  0  0  0  0  0  0  0  0  0
  -10.5226  -21.4441   31.0623 H   0  0  0  0  0  0  0  0  0  0  0  0
  -11.8622  -23.3524   32.9470 H   0  0  0  0  0  0  0  0  0  0  0  0
  -10.1697  -23.1809   32.6696 H   0  0  0  0  0  0  0  0  0  0  0  0
   -8.7967  -25.9879   33.2208 H   0  0  0  0  0  0  0  0  0  0  0  0
  -10.1127  -27.0623   32.7632 H   0  0  0  0  0  0  0  0  0  0  0  0
  -11.5307  -25.4234   33.6457 H   0  0  0  0  0  0  0  0  0  0  0  0
  -13.4822  -24.6648   27.0498 H   0  0  0  0  0  0  0  0  0  0  0  0
  -13.8386  -25.0972   24.5207 H   0  0  0  0  0  0  0  0  0  0  0  0
  -13.4442  -26.7217   25.5225 H   0  0  0  0  0  0  0  0  0  0  0  0
  -11.7511  -26.6729   26.0592 H   0  0  0  0  0  0  0  0  0  0  0  0
  -11.3682  -27.5368   28.7103 H   0  0  0  0  0  0  0  0  0  0  0  0
  -13.0788  -28.8653   30.0664 H   0  0  0  0  0  0  0  0  0  0  0  0
  -15.4624  -28.2287   29.4419 H   0  0  0  0  0  0  0  0  0  0  0  0
  1  2  1  0
  2  3  1  0
  3  4  1  0
  4  5  1  0
  5  6  1  0
  6  7  1  0
  7  8  1  0
  8  9  1  0
  9 10  2  0
  9 11  1  0
 11 12  1  0
  2 13  1  0
 13 14  2  0
 13 15  1  0
 15 16  1  0
 15 17  1  0
 17 18  1  0
 18 19  2  0
 19 20  1  0
 20 21  1  0
 21 22  2  0
  8  4  1  0
 22 18  1  0
  1 23  1  0
  1 24  1  0
  1 25  1  0
  3 26  1  0
  3 27  1  0
  4 28  1  0
  5 29  1  0
  5 30  1  0
  6 31  1  0
  6 32  1  0
  7 33  1  0
  7 34  1  0
 11 35  1  0
 11 36  1  0
 12 37  1  0
 15 38  1  0
 16 39  1  0
 17 40  1  0
 17 41  1  0
 19 42  1  0
 20 43  1  0
 21 44  1  0
M  END
>  <Energy>  (1293) 
256.9150586433887

>  <compound_id>  (1293) 
46387

>  <target_id>  (1293) 
1

>  <reference_id>  (1293) 
115

>  <inspiration_ids>  (1293) 
[3, 115]

>  <energy_score>  (1293) 
146.44232941754643

>  <distance_score>  (1293) 
4.787294472185406

>  <path>  (1293) 
/opt/xchem-fragalysis-2/maxwin/BulkDock/SCRATCH/511020/C46387-P115/C46387-P115.minimised.mol

>  <scratch_subdir>  (1293) 
/opt/xchem-fragalysis-2/maxwin/BulkDock/SCRATCH/511020/C46387-P115

>  <fragmenstein_runtime>  (1293) 
7.885448932647705

>  <fragmenstein_outcome>  (1293) 
too moved

>  <fragmenstein_mode>  (1293) 
expansion

>  <fragmenstein_error>  (1293) 


$$$$
C46388-P3
     RDKit          3D

 33 34  0  0  0  0  0  0  0  0999 V2000
  -11.9288  -26.4529   30.4037 C   0  0  0  0  0  0  0  0  0  0  0  0
  -12.0959  -26.0963   28.9358 C   0  0  0  0  0  0  0  0  0  0  0  0
  -12.8916  -27.0941   28.4554 F   0  0  0  0  0  0  0  0  0  0  0  0
  -10.9274  -26.2170   28.2669 F   0  0  0  0  0  0  0  0  0  0  0  0
  -12.8061  -24.7387   28.5728 C   0  0  0  0  0  0  0  0  0  0  0  0
  -13.4483  -24.6695   27.1740 C   0  0  0  0  0  0  0  0  0  0  0  0
  -12.9617  -23.3474   26.7383 C   0  0  0  0  0  0  0  0  0  0  0  0
  -11.7550  -23.3925   27.6168 C   0  0  0  0  0  0  0  0  0  0  0  0
  -12.0803  -23.4917   29.0842 N   0  0  0  0  0  0  0  0  0  0  0  0
  -10.8370  -23.3552   29.9294 C   0  0  0  0  0  0  0  0  0  0  0  0
  -10.0928  -24.1740   30.3241 O   0  0  0  0  0  0  0  0  0  0  0  0
  -10.5818  -21.8520   30.1783 C   0  0  0  0  0  0  0  0  0  0  0  0
  -11.7154  -21.0141   30.0018 O   0  0  0  0  0  0  0  0  0  0  0  0
  -10.0524  -21.7419   31.5688 C   0  0  0  0  0  0  0  0  0  0  0  0
   -8.9686  -22.3608   32.1527 C   0  0  0  0  0  0  0  0  0  0  0  0
   -9.1316  -22.1616   33.4902 N   0  0  0  0  0  0  0  0  0  0  0  0
  -10.2318  -21.3705   33.6523 C   0  0  0  0  0  0  0  0  0  0  0  0
  -10.7613  -21.0325   32.5022 N   0  0  0  0  0  0  0  0  0  0  0  0
  -11.5158  -27.4640   30.4763 H   0  0  0  0  0  0  0  0  0  0  0  0
  -11.3103  -25.7934   30.9964 H   0  0  0  0  0  0  0  0  0  0  0  0
  -12.9119  -26.4891   30.8871 H   0  0  0  0  0  0  0  0  0  0  0  0
  -13.6801  -24.7471   29.2440 H   0  0  0  0  0  0  0  0  0  0  0  0
  -14.5410  -24.7244   27.2045 H   0  0  0  0  0  0  0  0  0  0  0  0
  -13.0838  -25.4754   26.5265 H   0  0  0  0  0  0  0  0  0  0  0  0
  -12.7331  -23.2880   25.6733 H   0  0  0  0  0  0  0  0  0  0  0  0
  -13.6432  -22.5377   27.0081 H   0  0  0  0  0  0  0  0  0  0  0  0
  -11.2307  -22.4333   27.5011 H   0  0  0  0  0  0  0  0  0  0  0  0
  -11.0060  -24.1294   27.2980 H   0  0  0  0  0  0  0  0  0  0  0  0
   -9.8422  -21.5598   29.4308 H   0  0  0  0  0  0  0  0  0  0  0  0
  -11.8968  -20.6455   30.8979 H   0  0  0  0  0  0  0  0  0  0  0  0
   -8.2048  -23.0231   31.7685 H   0  0  0  0  0  0  0  0  0  0  0  0
   -8.5919  -22.6250   34.2098 H   0  0  0  0  0  0  0  0  0  0  0  0
  -10.6348  -21.0983   34.6190 H   0  0  0  0  0  0  0  0  0  0  0  0
  1  2  1  0
  2  3  1  0
  2  4  1  0
  2  5  1  0
  5  6  1  0
  6  7  1  0
  7  8  1  0
  8  9  1  0
  9 10  1  0
 10 11  2  0
 10 12  1  0
 12 13  1  0
 12 14  1  0
 14 15  2  0
 15 16  1  0
 16 17  1  0
 17 18  2  0
  9  5  1  0
 18 14  1  0
  1 19  1  0
  1 20  1  0
  1 21  1  0
  5 22  1  0
  6 23  1  0
  6 24  1  0
  7 25  1  0
  7 26  1  0
  8 27  1  0
  8 28  1  0
 12 29  1  0
 13 30  1  0
 15 31  1  0
 16 32  1  0
 17 33  1  0
M  END
>  <Energy>  (1294) 
180.15127380691106

>  <compound_id>  (1294) 
46388

>  <target_id>  (1294) 
1

>  <reference_id>  (1294) 
3

>  <inspiration_ids>  (1294) 
[3, 115]

>  <energy_score>  (1294) 
47.099276597341714

>  <distance_score>  (1294) 
1.851497708014334

>  <path>  (1294) 
/opt/xchem-fragalysis-2/maxwin/BulkDock/SCRATCH/511020/C46388-P3/C46388-P3.minimised.mol

>  <scratch_subdir>  (1294) 
/opt/xchem-fragalysis-2/maxwin/BulkDock/SCRATCH/511020/C46388-P3

>  <fragmenstein_runtime>  (1294) 
9.186074018478394

>  <fragmenstein_outcome>  (1294) 
too moved

>  <fragmenstein_mode>  (1294) 
expansion

>  <fragmenstein_error>  (1294) 


$$$$
C46388-P115
     RDKit          3D

 33 34  0  0  0  0  0  0  0  0999 V2000
  -10.1782  -26.5629   30.4071 C   0  0  0  0  0  0  0  0  0  0  0  0
  -10.8235  -26.4510   29.0533 C   0  0  0  0  0  0  0  0  0  0  0  0
  -11.5516  -27.5940   28.8809 F   0  0  0  0  0  0  0  0  0  0  0  0
   -9.8449  -26.4503   28.1099 F   0  0  0  0  0  0  0  0  0  0  0  0
  -11.8250  -25.3374   28.6877 C   0  0  0  0  0  0  0  0  0  0  0  0
  -12.0906  -25.2369   27.1794 C   0  0  0  0  0  0  0  0  0  0  0  0
  -11.4547  -23.9282   26.9293 C   0  0  0  0  0  0  0  0  0  0  0  0
  -10.8630  -23.7000   28.3014 C   0  0  0  0  0  0  0  0  0  0  0  0
  -11.8193  -24.0369   29.4258 N   0  0  0  0  0  0  0  0  0  0  0  0
  -11.2331  -23.6706   30.7743 C   0  0  0  0  0  0  0  0  0  0  0  0
  -10.5785  -24.3041   31.5154 O   0  0  0  0  0  0  0  0  0  0  0  0
  -11.7344  -22.2522   31.0940 C   0  0  0  0  0  0  0  0  0  0  0  0
  -13.1606  -22.2352   30.9361 O   0  0  0  0  0  0  0  0  0  0  0  0
  -11.2101  -21.8513   32.4346 C   0  0  0  0  0  0  0  0  0  0  0  0
  -11.0620  -22.6030   33.5831 C   0  0  0  0  0  0  0  0  0  0  0  0
  -10.2170  -21.8949   34.3858 N   0  0  0  0  0  0  0  0  0  0  0  0
  -10.0019  -20.6950   33.7817 C   0  0  0  0  0  0  0  0  0  0  0  0
  -10.5754  -20.6474   32.6021 N   0  0  0  0  0  0  0  0  0  0  0  0
   -9.6967  -27.5283   30.5435 H   0  0  0  0  0  0  0  0  0  0  0  0
   -9.3791  -25.8293   30.5202 H   0  0  0  0  0  0  0  0  0  0  0  0
  -10.9231  -26.5055   31.2004 H   0  0  0  0  0  0  0  0  0  0  0  0
  -12.7612  -25.7617   29.0819 H   0  0  0  0  0  0  0  0  0  0  0  0
  -11.6253  -26.0487   26.6106 H   0  0  0  0  0  0  0  0  0  0  0  0
  -13.1511  -25.2401   26.9194 H   0  0  0  0  0  0  0  0  0  0  0  0
  -10.7018  -23.9978   26.1457 H   0  0  0  0  0  0  0  0  0  0  0  0
  -12.1830  -23.1650   26.6612 H   0  0  0  0  0  0  0  0  0  0  0  0
  -10.6734  -22.6223   28.3902 H   0  0  0  0  0  0  0  0  0  0  0  0
   -9.8694  -24.1533   28.4416 H   0  0  0  0  0  0  0  0  0  0  0  0
  -11.3214  -21.5694   30.3431 H   0  0  0  0  0  0  0  0  0  0  0  0
  -13.2582  -22.6562   30.0490 H   0  0  0  0  0  0  0  0  0  0  0  0
  -11.3927  -23.6010   33.8449 H   0  0  0  0  0  0  0  0  0  0  0  0
   -9.8542  -22.1921   35.2814 H   0  0  0  0  0  0  0  0  0  0  0  0
   -9.4017  -19.9104   34.2246 H   0  0  0  0  0  0  0  0  0  0  0  0
  1  2  1  0
  2  3  1  0
  2  4  1  0
  2  5  1  0
  5  6  1  0
  6  7  1  0
  7  8  1  0
  8  9  1  0
  9 10  1  0
 10 11  2  0
 10 12  1  0
 12 13  1  0
 12 14  1  0
 14 15  2  0
 15 16  1  0
 16 17  1  0
 17 18  2  0
  9  5  1  0
 18 14  1  0
  1 19  1  0
  1 20  1  0
  1 21  1  0
  5 22  1  0
  6 23  1  0
  6 24  1  0
  7 25  1  0
  7 26  1  0
  8 27  1  0
  8 28  1  0
 12 29  1  0
 13 30  1  0
 15 31  1  0
 16 32  1  0
 17 33  1  0
M  END
>  <Energy>  (1295) 
187.39231831546223

>  <compound_id>  (1295) 
46388

>  <target_id>  (1295) 
1

>  <reference_id>  (1295) 
115

>  <inspiration_ids>  (1295) 
[3, 115]

>  <energy_score>  (1295) 
54.34032110589328

>  <distance_score>  (1295) 
2.075502514660734

>  <path>  (1295) 
/opt/xchem-fragalysis-2/maxwin/BulkDock/SCRATCH/511020/C46388-P115/C46388-P115.minimised.mol

>  <scratch_subdir>  (1295) 
/opt/xchem-fragalysis-2/maxwin/BulkDock/SCRATCH/511020/C46388-P115

>  <fragmenstein_runtime>  (1295) 
9.685432195663452

>  <fragmenstein_outcome>  (1295) 
too moved

>  <fragmenstein_mode>  (1295) 
expansion

>  <fragmenstein_error>  (1295) 


$$$$
C46389-P3
     RDKit          3D

 46 47  0  0  0  0  0  0  0  0999 V2000
  -12.8148  -27.1693   31.7491 C   0  0  0  0  0  0  0  0  0  0  0  0
  -13.0035  -27.4418   30.3299 N   0  0  0  0  0  0  0  0  0  0  0  0
  -12.2167  -28.5744   29.8643 C   0  0  0  0  0  0  0  0  0  0  0  0
  -14.4439  -27.5025   29.9252 C   0  0  0  0  0  0  0  0  0  0  0  0
  -15.1973  -28.8310   30.1405 C   0  0  0  0  0  0  0  0  0  0  0  0
  -15.2055  -29.2342   31.5098 O   0  0  0  0  0  0  0  0  0  0  0  0
  -14.5725  -27.0639   28.4207 C   0  0  0  0  0  0  0  0  0  0  0  0
  -15.4711  -27.4621   27.7374 O   0  0  0  0  0  0  0  0  0  0  0  0
  -13.5141  -26.1420   28.1302 N   0  0  0  0  0  0  0  0  0  0  0  0
  -13.2550  -25.3377   26.9645 C   0  0  0  0  0  0  0  0  0  0  0  0
  -11.7902  -25.2224   26.7045 C   0  0  0  0  0  0  0  0  0  0  0  0
  -11.6656  -23.7126   26.7524 C   0  0  0  0  0  0  0  0  0  0  0  0
  -12.4437  -23.1541   27.9100 N   0  0  0  0  0  0  0  0  0  0  0  0
  -11.7761  -23.4513   29.1532 C   0  0  0  0  0  0  0  0  0  0  0  0
  -11.8924  -24.3938   29.8976 O   0  0  0  0  0  0  0  0  0  0  0  0
  -10.8321  -22.2472   29.5132 C   0  0  0  0  0  0  0  0  0  0  0  0
  -11.5612  -21.0188   29.5120 O   0  0  0  0  0  0  0  0  0  0  0  0
  -10.1503  -22.4444   30.8398 C   0  0  0  0  0  0  0  0  0  0  0  0
   -9.2949  -23.4298   31.2812 C   0  0  0  0  0  0  0  0  0  0  0  0
   -8.9929  -23.1105   32.5769 N   0  0  0  0  0  0  0  0  0  0  0  0
   -9.6518  -21.9516   32.8700 C   0  0  0  0  0  0  0  0  0  0  0  0
  -10.3398  -21.5121   31.8419 N   0  0  0  0  0  0  0  0  0  0  0  0
  -13.5730  -23.8643   27.2032 C   0  0  0  0  0  0  0  0  0  0  0  0
  -13.4335  -26.3243   32.0685 H   0  0  0  0  0  0  0  0  0  0  0  0
  -13.0506  -28.0270   32.3849 H   0  0  0  0  0  0  0  0  0  0  0  0
  -11.7830  -26.8746   31.9480 H   0  0  0  0  0  0  0  0  0  0  0  0
  -12.4203  -29.4890   30.4295 H   0  0  0  0  0  0  0  0  0  0  0  0
  -12.3960  -28.7814   28.8041 H   0  0  0  0  0  0  0  0  0  0  0  0
  -11.1531  -28.3394   29.9482 H   0  0  0  0  0  0  0  0  0  0  0  0
  -14.9800  -26.7198   30.4806 H   0  0  0  0  0  0  0  0  0  0  0  0
  -14.7803  -29.6434   29.5349 H   0  0  0  0  0  0  0  0  0  0  0  0
  -16.2450  -28.7189   29.8405 H   0  0  0  0  0  0  0  0  0  0  0  0
  -14.3338  -29.6227   31.6908 H   0  0  0  0  0  0  0  0  0  0  0  0
  -12.9721  -25.9735   28.9890 H   0  0  0  0  0  0  0  0  0  0  0  0
  -13.8277  -25.7389   26.1230 H   0  0  0  0  0  0  0  0  0  0  0  0
  -11.1939  -25.7022   27.4881 H   0  0  0  0  0  0  0  0  0  0  0  0
  -11.4756  -25.6562   25.7562 H   0  0  0  0  0  0  0  0  0  0  0  0
  -10.6195  -23.4371   26.8978 H   0  0  0  0  0  0  0  0  0  0  0  0
  -11.9268  -23.2045   25.8089 H   0  0  0  0  0  0  0  0  0  0  0  0
  -10.0739  -22.1597   28.7336 H   0  0  0  0  0  0  0  0  0  0  0  0
  -11.5341  -20.6993   30.4420 H   0  0  0  0  0  0  0  0  0  0  0  0
   -8.9018  -24.3216   30.8231 H   0  0  0  0  0  0  0  0  0  0  0  0
   -8.4199  -23.6562   33.2179 H   0  0  0  0  0  0  0  0  0  0  0  0
   -9.6041  -21.4882   33.8437 H   0  0  0  0  0  0  0  0  0  0  0  0
  -14.4339  -23.7974   27.8803 H   0  0  0  0  0  0  0  0  0  0  0  0
  -13.8815  -23.3171   26.2972 H   0  0  0  0  0  0  0  0  0  0  0  0
  1  2  1  0
  2  3  1  0
  2  4  1  0
  4  5  1  0
  5  6  1  0
  4  7  1  0
  7  8  2  0
  7  9  1  0
  9 10  1  0
 10 11  1  0
 11 12  1  0
 12 13  1  0
 13 14  1  0
 14 15  2  0
 14 16  1  0
 16 17  1  0
 16 18  1  0
 18 19  2  0
 19 20  1  0
 20 21  1  0
 21 22  2  0
 13 23  1  0
 23 10  1  0
 22 18  1  0
  1 24  1  0
  1 25  1  0
  1 26  1  0
  3 27  1  0
  3 28  1  0
  3 29  1  0
  4 30  1  0
  5 31  1  0
  5 32  1  0
  6 33  1  0
  9 34  1  0
 10 35  1  0
 11 36  1  0
 11 37  1  0
 12 38  1  0
 12 39  1  0
 16 40  1  0
 17 41  1  0
 19 42  1  0
 20 43  1  0
 21 44  1  0
 23 45  1  0
 23 46  1  0
M  END
>  <Energy>  (1296) 
185.34255552663438

>  <compound_id>  (1296) 
46389

>  <target_id>  (1296) 
1

>  <reference_id>  (1296) 
3

>  <inspiration_ids>  (1296) 
[3, 115]

>  <energy_score>  (1296) 
8.863513083368673

>  <distance_score>  (1296) 
2.5387370769573936

>  <path>  (1296) 
/opt/xchem-fragalysis-2/maxwin/BulkDock/SCRATCH/511020/C46389-P3/C46389-P3.minimised.mol

>  <scratch_subdir>  (1296) 
/opt/xchem-fragalysis-2/maxwin/BulkDock/SCRATCH/511020/C46389-P3

>  <fragmenstein_runtime>  (1296) 
15.53661823272705

>  <fragmenstein_outcome>  (1296) 
too moved

>  <fragmenstein_mode>  (1296) 
expansion

>  <fragmenstein_error>  (1296) 


$$$$
C46389-P115
     RDKit          3D

 46 47  0  0  0  0  0  0  0  0999 V2000
   -9.4478  -25.3029   31.9526 C   0  0  0  0  0  0  0  0  0  0  0  0
  -10.3580  -26.1486   31.1574 N   0  0  0  0  0  0  0  0  0  0  0  0
   -9.9090  -27.5092   31.4463 C   0  0  0  0  0  0  0  0  0  0  0  0
  -10.3474  -25.8262   29.6706 C   0  0  0  0  0  0  0  0  0  0  0  0
  -11.3666  -26.6080   28.8088 C   0  0  0  0  0  0  0  0  0  0  0  0
  -12.5420  -26.8776   29.5617 O   0  0  0  0  0  0  0  0  0  0  0  0
  -10.8344  -24.3966   29.4039 C   0  0  0  0  0  0  0  0  0  0  0  0
  -10.4974  -23.8256   28.4055 O   0  0  0  0  0  0  0  0  0  0  0  0
  -11.6666  -23.9727   30.4892 N   0  0  0  0  0  0  0  0  0  0  0  0
  -12.2761  -22.7107   30.7663 C   0  0  0  0  0  0  0  0  0  0  0  0
  -11.4366  -21.5894   30.3861 C   0  0  0  0  0  0  0  0  0  0  0  0
  -10.8512  -21.4235   31.7546 C   0  0  0  0  0  0  0  0  0  0  0  0
  -11.7218  -21.2787   32.9111 N   0  0  0  0  0  0  0  0  0  0  0  0
  -10.9299  -21.1848   34.1188 C   0  0  0  0  0  0  0  0  0  0  0  0
  -10.5446  -22.0435   34.8671 O   0  0  0  0  0  0  0  0  0  0  0  0
  -10.6426  -19.6780   34.3800 C   0  0  0  0  0  0  0  0  0  0  0  0
  -11.8281  -18.9011   34.5612 O   0  0  0  0  0  0  0  0  0  0  0  0
   -9.6382  -19.4156   35.4441 C   0  0  0  0  0  0  0  0  0  0  0  0
   -8.3548  -18.9346   35.2813 C   0  0  0  0  0  0  0  0  0  0  0  0
   -7.8555  -18.8100   36.5453 N   0  0  0  0  0  0  0  0  0  0  0  0
   -8.8315  -19.1963   37.4144 C   0  0  0  0  0  0  0  0  0  0  0  0
   -9.9264  -19.5399   36.7829 N   0  0  0  0  0  0  0  0  0  0  0  0
  -12.3971  -22.4481   32.2799 C   0  0  0  0  0  0  0  0  0  0  0  0
   -8.4078  -25.4282   31.6536 H   0  0  0  0  0  0  0  0  0  0  0  0
   -9.6958  -24.2505   31.8990 H   0  0  0  0  0  0  0  0  0  0  0  0
   -9.5263  -25.5531   33.0181 H   0  0  0  0  0  0  0  0  0  0  0  0
   -8.9163  -27.7332   31.0777 H   0  0  0  0  0  0  0  0  0  0  0  0
   -9.8784  -27.7014   32.5267 H   0  0  0  0  0  0  0  0  0  0  0  0
  -10.6169  -28.2179   31.0361 H   0  0  0  0  0  0  0  0  0  0  0  0
   -9.3388  -25.9097   29.2547 H   0  0  0  0  0  0  0  0  0  0  0  0
  -10.9785  -27.5636   28.5127 H   0  0  0  0  0  0  0  0  0  0  0  0
  -11.6629  -26.0888   27.8907 H   0  0  0  0  0  0  0  0  0  0  0  0
  -12.1820  -26.9236   30.4692 H   0  0  0  0  0  0  0  0  0  0  0  0
  -11.8026  -24.7577   31.1305 H   0  0  0  0  0  0  0  0  0  0  0  0
  -13.2245  -22.6406   30.2492 H   0  0  0  0  0  0  0  0  0  0  0  0
  -10.7237  -21.7436   29.5852 H   0  0  0  0  0  0  0  0  0  0  0  0
  -12.0708  -20.8220   29.9878 H   0  0  0  0  0  0  0  0  0  0  0  0
  -10.1742  -22.2361   32.0224 H   0  0  0  0  0  0  0  0  0  0  0  0
  -10.2304  -20.5455   31.7749 H   0  0  0  0  0  0  0  0  0  0  0  0
  -10.1620  -19.3323   33.4653 H   0  0  0  0  0  0  0  0  0  0  0  0
  -11.6372  -18.0498   34.1168 H   0  0  0  0  0  0  0  0  0  0  0  0
   -7.7773  -18.6836   34.4015 H   0  0  0  0  0  0  0  0  0  0  0  0
   -6.9313  -18.4896   36.7978 H   0  0  0  0  0  0  0  0  0  0  0  0
   -8.6927  -19.1964   38.4869 H   0  0  0  0  0  0  0  0  0  0  0  0
  -13.4456  -22.2109   32.4790 H   0  0  0  0  0  0  0  0  0  0  0  0
  -12.1524  -23.3346   32.8828 H   0  0  0  0  0  0  0  0  0  0  0  0
  1  2  1  0
  2  3  1  0
  2  4  1  0
  4  5  1  0
  5  6  1  0
  4  7  1  0
  7  8  2  0
  7  9  1  0
  9 10  1  0
 10 11  1  0
 11 12  1  0
 12 13  1  0
 13 14  1  0
 14 15  2  0
 14 16  1  0
 16 17  1  0
 16 18  1  0
 18 19  2  0
 19 20  1  0
 20 21  1  0
 21 22  2  0
 13 23  1  0
 23 10  1  0
 22 18  1  0
  1 24  1  0
  1 25  1  0
  1 26  1  0
  3 27  1  0
  3 28  1  0
  3 29  1  0
  4 30  1  0
  5 31  1  0
  5 32  1  0
  6 33  1  0
  9 34  1  0
 10 35  1  0
 11 36  1  0
 11 37  1  0
 12 38  1  0
 12 39  1  0
 16 40  1  0
 17 41  1  0
 19 42  1  0
 20 43  1  0
 21 44  1  0
 23 45  1  0
 23 46  1  0
M  END
>  <Energy>  (1297) 
219.15274545946738

>  <compound_id>  (1297) 
46389

>  <target_id>  (1297) 
1

>  <reference_id>  (1297) 
115

>  <inspiration_ids>  (1297) 
[3, 115]

>  <energy_score>  (1297) 
42.67370301620258

>  <distance_score>  (1297) 
4.3698207691370925

>  <path>  (1297) 
/opt/xchem-fragalysis-2/maxwin/BulkDock/SCRATCH/511020/C46389-P115/C46389-P115.minimised.mol

>  <scratch_subdir>  (1297) 
/opt/xchem-fragalysis-2/maxwin/BulkDock/SCRATCH/511020/C46389-P115

>  <fragmenstein_runtime>  (1297) 
18.746020078659058

>  <fragmenstein_outcome>  (1297) 
too moved

>  <fragmenstein_mode>  (1297) 
expansion

>  <fragmenstein_error>  (1297) 


$$$$
C46390-P3
     RDKit          3D

 48 49  0  0  0  0  0  0  0  0999 V2000
  -11.5508  -23.8653   30.0702 C   0  0  0  0  0  0  0  0  0  0  0  0
  -12.0343  -25.2836   30.0981 C   0  0  0  0  0  0  0  0  0  0  0  0
  -11.7550  -25.8598   28.6492 C   0  0  0  0  0  0  0  0  0  0  0  0
  -11.1237  -26.8544   28.4427 O   0  0  0  0  0  0  0  0  0  0  0  0
  -12.3282  -24.8890   27.7240 N   0  0  0  0  0  0  0  0  0  0  0  0
  -12.2301  -24.7769   26.2981 C   0  0  0  0  0  0  0  0  0  0  0  0
  -12.8862  -23.4897   25.6872 C   0  0  0  0  0  0  0  0  0  0  0  0
  -12.0217  -22.3617   25.1509 C   0  0  0  0  0  0  0  0  0  0  0  0
  -12.6829  -21.1380   25.8348 C   0  0  0  0  0  0  0  0  0  0  0  0
  -12.9054  -21.5259   27.2666 N   0  0  0  0  0  0  0  0  0  0  0  0
  -11.6654  -21.5424   27.9696 C   0  0  0  0  0  0  0  0  0  0  0  0
  -10.8768  -22.4364   28.1414 O   0  0  0  0  0  0  0  0  0  0  0  0
  -11.3443  -20.2119   28.7223 C   0  0  0  0  0  0  0  0  0  0  0  0
  -10.0478  -19.9014   28.2923 O   0  0  0  0  0  0  0  0  0  0  0  0
  -11.2552  -20.3777   30.2501 C   0  0  0  0  0  0  0  0  0  0  0  0
  -10.4824  -21.2287   31.0268 C   0  0  0  0  0  0  0  0  0  0  0  0
  -10.6730  -20.8659   32.3315 N   0  0  0  0  0  0  0  0  0  0  0  0
  -11.4791  -19.7741   32.3225 C   0  0  0  0  0  0  0  0  0  0  0  0
  -11.8118  -19.4486   31.0975 N   0  0  0  0  0  0  0  0  0  0  0  0
  -13.6845  -22.6375   26.6098 C   0  0  0  0  0  0  0  0  0  0  0  0
  -11.3464  -25.9055   31.2293 N   0  0  0  0  0  0  0  0  0  0  0  0
  -10.3099  -25.1350   31.9626 C   0  0  0  0  0  0  0  0  0  0  0  0
  -12.1995  -26.7643   32.0277 C   0  0  0  0  0  0  0  0  0  0  0  0
  -11.5033  -23.3750   31.0246 H   0  0  0  0  0  0  0  0  0  0  0  0
  -10.5399  -23.8233   29.6695 H   0  0  0  0  0  0  0  0  0  0  0  0
  -12.2611  -23.2381   29.5557 H   0  0  0  0  0  0  0  0  0  0  0  0
  -13.1223  -25.3147   30.2407 H   0  0  0  0  0  0  0  0  0  0  0  0
  -12.8644  -24.2221   28.2404 H   0  0  0  0  0  0  0  0  0  0  0  0
  -11.1720  -24.8515   26.0317 H   0  0  0  0  0  0  0  0  0  0  0  0
  -12.7274  -25.6672   25.8964 H   0  0  0  0  0  0  0  0  0  0  0  0
  -13.5723  -23.8301   24.9012 H   0  0  0  0  0  0  0  0  0  0  0  0
  -12.0642  -22.2598   24.0626 H   0  0  0  0  0  0  0  0  0  0  0  0
  -10.9766  -22.4892   25.4470 H   0  0  0  0  0  0  0  0  0  0  0  0
  -12.0015  -20.2858   25.8121 H   0  0  0  0  0  0  0  0  0  0  0  0
  -13.5862  -20.7999   25.3121 H   0  0  0  0  0  0  0  0  0  0  0  0
  -12.0387  -19.4191   28.4502 H   0  0  0  0  0  0  0  0  0  0  0  0
   -9.5594  -20.7323   28.4484 H   0  0  0  0  0  0  0  0  0  0  0  0
   -9.7813  -22.0088   30.7691 H   0  0  0  0  0  0  0  0  0  0  0  0
  -10.2798  -21.3027   33.1535 H   0  0  0  0  0  0  0  0  0  0  0  0
  -11.7993  -19.2694   33.2246 H   0  0  0  0  0  0  0  0  0  0  0  0
  -14.5972  -22.2631   26.1117 H   0  0  0  0  0  0  0  0  0  0  0  0
  -14.1388  -23.2224   27.4134 H   0  0  0  0  0  0  0  0  0  0  0  0
   -9.4349  -24.9873   31.3227 H   0  0  0  0  0  0  0  0  0  0  0  0
  -10.0175  -25.6252   32.8966 H   0  0  0  0  0  0  0  0  0  0  0  0
  -10.4811  -24.1144   32.2780 H   0  0  0  0  0  0  0  0  0  0  0  0
  -13.0591  -26.2266   32.4318 H   0  0  0  0  0  0  0  0  0  0  0  0
  -11.6653  -27.2265   32.8647 H   0  0  0  0  0  0  0  0  0  0  0  0
  -12.5840  -27.5858   31.4126 H   0  0  0  0  0  0  0  0  0  0  0  0
  1  2  1  0
  2  3  1  0
  3  4  2  0
  3  5  1  0
  5  6  1  0
  6  7  1  0
  7  8  1  0
  8  9  1  0
  9 10  1  0
 10 11  1  0
 11 12  2  0
 11 13  1  0
 13 14  1  0
 13 15  1  0
 15 16  2  0
 16 17  1  0
 17 18  1  0
 18 19  2  0
 10 20  1  0
  2 21  1  0
 21 22  1  0
 21 23  1  0
 20  7  1  0
 19 15  1  0
  1 24  1  0
  1 25  1  0
  1 26  1  0
  2 27  1  0
  5 28  1  0
  6 29  1  0
  6 30  1  0
  7 31  1  0
  8 32  1  0
  8 33  1  0
  9 34  1  0
  9 35  1  0
 13 36  1  0
 14 37  1  0
 16 38  1  0
 17 39  1  0
 18 40  1  0
 20 41  1  0
 20 42  1  0
 22 43  1  0
 22 44  1  0
 22 45  1  0
 23 46  1  0
 23 47  1  0
 23 48  1  0
M  END
>  <Energy>  (1298) 
231.61834210770166

>  <compound_id>  (1298) 
46390

>  <target_id>  (1298) 
1

>  <reference_id>  (1298) 
3

>  <inspiration_ids>  (1298) 
[3, 115]

>  <energy_score>  (1298) 
64.24643845902449

>  <distance_score>  (1298) 
1.9964776947922471

>  <path>  (1298) 
/opt/xchem-fragalysis-2/maxwin/BulkDock/SCRATCH/511020/C46390-P3/C46390-P3.minimised.mol

>  <scratch_subdir>  (1298) 
/opt/xchem-fragalysis-2/maxwin/BulkDock/SCRATCH/511020/C46390-P3

>  <fragmenstein_runtime>  (1298) 
17.883739948272705

>  <fragmenstein_outcome>  (1298) 
too moved

>  <fragmenstein_mode>  (1298) 
expansion

>  <fragmenstein_error>  (1298) 


$$$$
C46390-P115
     RDKit          3D

 48 49  0  0  0  0  0  0  0  0999 V2000
  -11.1878  -26.6120   31.2891 C   0  0  0  0  0  0  0  0  0  0  0  0
   -9.7341  -26.8490   31.0789 C   0  0  0  0  0  0  0  0  0  0  0  0
   -9.4287  -26.0393   29.8011 C   0  0  0  0  0  0  0  0  0  0  0  0
   -8.7643  -25.0640   29.8817 O   0  0  0  0  0  0  0  0  0  0  0  0
  -10.1217  -26.6000   28.6896 N   0  0  0  0  0  0  0  0  0  0  0  0
  -10.3077  -26.1135   27.3651 C   0  0  0  0  0  0  0  0  0  0  0  0
  -11.6449  -25.4297   27.2021 C   0  0  0  0  0  0  0  0  0  0  0  0
  -11.6098  -24.0289   26.7613 C   0  0  0  0  0  0  0  0  0  0  0  0
  -11.2669  -23.4377   28.1112 C   0  0  0  0  0  0  0  0  0  0  0  0
  -12.1283  -23.8020   29.3089 N   0  0  0  0  0  0  0  0  0  0  0  0
  -11.4547  -23.4602   30.5216 C   0  0  0  0  0  0  0  0  0  0  0  0
  -10.7181  -24.1056   31.2127 O   0  0  0  0  0  0  0  0  0  0  0  0
  -11.8536  -22.0769   31.0181 C   0  0  0  0  0  0  0  0  0  0  0  0
  -11.3574  -21.1105   30.1055 O   0  0  0  0  0  0  0  0  0  0  0  0
  -11.2883  -21.8307   32.3987 C   0  0  0  0  0  0  0  0  0  0  0  0
  -11.2997  -22.6186   33.5289 C   0  0  0  0  0  0  0  0  0  0  0  0
  -10.4041  -22.0408   34.3852 N   0  0  0  0  0  0  0  0  0  0  0  0
   -9.9930  -20.8717   33.8191 C   0  0  0  0  0  0  0  0  0  0  0  0
  -10.5127  -20.7147   32.6239 N   0  0  0  0  0  0  0  0  0  0  0  0
  -12.2261  -25.1485   28.5484 C   0  0  0  0  0  0  0  0  0  0  0  0
   -8.8784  -26.6671   32.2722 N   0  0  0  0  0  0  0  0  0  0  0  0
   -9.1969  -25.5235   33.1110 C   0  0  0  0  0  0  0  0  0  0  0  0
   -8.8280  -27.8720   33.0953 C   0  0  0  0  0  0  0  0  0  0  0  0
  -11.7225  -27.4319   30.7936 H   0  0  0  0  0  0  0  0  0  0  0  0
  -11.4297  -26.3765   32.3227 H   0  0  0  0  0  0  0  0  0  0  0  0
  -11.6593  -25.7746   30.8455 H   0  0  0  0  0  0  0  0  0  0  0  0
   -9.5869  -27.8820   30.8007 H   0  0  0  0  0  0  0  0  0  0  0  0
  -10.6553  -27.3949   29.0028 H   0  0  0  0  0  0  0  0  0  0  0  0
   -9.5438  -25.3567   27.2663 H   0  0  0  0  0  0  0  0  0  0  0  0
  -10.1876  -26.9117   26.6343 H   0  0  0  0  0  0  0  0  0  0  0  0
  -12.3022  -26.0432   26.5771 H   0  0  0  0  0  0  0  0  0  0  0  0
  -12.5795  -23.6855   26.3917 H   0  0  0  0  0  0  0  0  0  0  0  0
  -10.8680  -23.8628   25.9851 H   0  0  0  0  0  0  0  0  0  0  0  0
  -11.3607  -22.3498   28.0122 H   0  0  0  0  0  0  0  0  0  0  0  0
  -10.2100  -23.5894   28.3583 H   0  0  0  0  0  0  0  0  0  0  0  0
  -12.9439  -22.0172   31.0553 H   0  0  0  0  0  0  0  0  0  0  0  0
  -10.6614  -20.6690   30.6357 H   0  0  0  0  0  0  0  0  0  0  0  0
  -11.7657  -23.5720   33.7449 H   0  0  0  0  0  0  0  0  0  0  0  0
  -10.1021  -22.4147   35.2747 H   0  0  0  0  0  0  0  0  0  0  0  0
   -9.3014  -20.1931   34.3019 H   0  0  0  0  0  0  0  0  0  0  0  0
  -13.2910  -25.3642   28.4103 H   0  0  0  0  0  0  0  0  0  0  0  0
  -12.1276  -25.9792   29.2170 H   0  0  0  0  0  0  0  0  0  0  0  0
   -8.9098  -24.5923   32.6211 H   0  0  0  0  0  0  0  0  0  0  0  0
  -10.2301  -25.4568   33.4529 H   0  0  0  0  0  0  0  0  0  0  0  0
   -8.6380  -25.5938   34.0459 H   0  0  0  0  0  0  0  0  0  0  0  0
   -8.1294  -27.7492   33.9315 H   0  0  0  0  0  0  0  0  0  0  0  0
   -8.4484  -28.7233   32.5248 H   0  0  0  0  0  0  0  0  0  0  0  0
   -9.8057  -28.1363   33.5072 H   0  0  0  0  0  0  0  0  0  0  0  0
  1  2  1  0
  2  3  1  0
  3  4  2  0
  3  5  1  0
  5  6  1  0
  6  7  1  0
  7  8  1  0
  8  9  1  0
  9 10  1  0
 10 11  1  0
 11 12  2  0
 11 13  1  0
 13 14  1  0
 13 15  1  0
 15 16  2  0
 16 17  1  0
 17 18  1  0
 18 19  2  0
 10 20  1  0
  2 21  1  0
 21 22  1  0
 21 23  1  0
 20  7  1  0
 19 15  1  0
  1 24  1  0
  1 25  1  0
  1 26  1  0
  2 27  1  0
  5 28  1  0
  6 29  1  0
  6 30  1  0
  7 31  1  0
  8 32  1  0
  8 33  1  0
  9 34  1  0
  9 35  1  0
 13 36  1  0
 14 37  1  0
 16 38  1  0
 17 39  1  0
 18 40  1  0
 20 41  1  0
 20 42  1  0
 22 43  1  0
 22 44  1  0
 22 45  1  0
 23 46  1  0
 23 47  1  0
 23 48  1  0
M  END
>  <Energy>  (1299) 
242.3450341341939

>  <compound_id>  (1299) 
46390

>  <target_id>  (1299) 
1

>  <reference_id>  (1299) 
115

>  <inspiration_ids>  (1299) 
[3, 115]

>  <energy_score>  (1299) 
74.97313048552229

>  <distance_score>  (1299) 
2.142377892198547

>  <path>  (1299) 
/opt/xchem-fragalysis-2/maxwin/BulkDock/SCRATCH/511020/C46390-P115/C46390-P115.minimised.mol

>  <scratch_subdir>  (1299) 
/opt/xchem-fragalysis-2/maxwin/BulkDock/SCRATCH/511020/C46390-P115

>  <fragmenstein_runtime>  (1299) 
17.91084313392639

>  <fragmenstein_outcome>  (1299) 
too moved

>  <fragmenstein_mode>  (1299) 
expansion

>  <fragmenstein_error>  (1299) 


$$$$
C46391-P3
     RDKit          3D

 48 49  0  0  0  0  0  0  0  0999 V2000
   -9.3257  -23.4145   30.5984 C   0  0  0  0  0  0  0  0  0  0  0  0
   -9.9276  -24.6492   31.0670 N   0  0  0  0  0  0  0  0  0  0  0  0
   -9.6577  -24.6717   32.5004 C   0  0  0  0  0  0  0  0  0  0  0  0
  -11.2901  -24.9438   30.6500 C   0  0  0  0  0  0  0  0  0  0  0  0
  -11.4646  -25.8861   29.4333 C   0  0  0  0  0  0  0  0  0  0  0  0
  -12.9257  -26.0139   28.9944 C   0  0  0  0  0  0  0  0  0  0  0  0
  -13.2949  -25.6271   27.5445 C   0  0  0  0  0  0  0  0  0  0  0  0
  -14.0526  -26.3439   26.9560 O   0  0  0  0  0  0  0  0  0  0  0  0
  -12.7138  -24.3770   27.1711 N   0  0  0  0  0  0  0  0  0  0  0  0
  -12.9313  -23.5331   26.0069 C   0  0  0  0  0  0  0  0  0  0  0  0
  -11.7510  -22.6945   25.5733 C   0  0  0  0  0  0  0  0  0  0  0  0
  -12.3031  -21.3243   25.9052 C   0  0  0  0  0  0  0  0  0  0  0  0
  -12.9902  -21.3793   27.1963 N   0  0  0  0  0  0  0  0  0  0  0  0
  -12.0363  -21.5601   28.2694 C   0  0  0  0  0  0  0  0  0  0  0  0
  -11.6126  -22.5680   28.7722 O   0  0  0  0  0  0  0  0  0  0  0  0
  -11.5328  -20.1942   28.8294 C   0  0  0  0  0  0  0  0  0  0  0  0
  -10.3177  -19.8738   28.1985 O   0  0  0  0  0  0  0  0  0  0  0  0
  -11.3322  -20.1147   30.3172 C   0  0  0  0  0  0  0  0  0  0  0  0
  -11.3076  -21.0465   31.3202 C   0  0  0  0  0  0  0  0  0  0  0  0
  -11.2249  -20.3717   32.5053 N   0  0  0  0  0  0  0  0  0  0  0  0
  -11.1740  -19.0574   32.1874 C   0  0  0  0  0  0  0  0  0  0  0  0
  -11.0945  -18.8921   30.8901 N   0  0  0  0  0  0  0  0  0  0  0  0
  -13.8393  -22.3918   26.4420 C   0  0  0  0  0  0  0  0  0  0  0  0
   -8.2530  -23.5520   30.5406 H   0  0  0  0  0  0  0  0  0  0  0  0
   -9.4255  -22.5753   31.2852 H   0  0  0  0  0  0  0  0  0  0  0  0
   -9.6836  -23.1061   29.6267 H   0  0  0  0  0  0  0  0  0  0  0  0
  -10.1401  -25.5114   33.0024 H   0  0  0  0  0  0  0  0  0  0  0  0
   -9.9383  -23.7461   33.0116 H   0  0  0  0  0  0  0  0  0  0  0  0
   -8.5790  -24.7678   32.6285 H   0  0  0  0  0  0  0  0  0  0  0  0
  -11.8345  -25.4222   31.4732 H   0  0  0  0  0  0  0  0  0  0  0  0
  -11.8027  -24.0221   30.4238 H   0  0  0  0  0  0  0  0  0  0  0  0
  -10.8722  -25.5763   28.5810 H   0  0  0  0  0  0  0  0  0  0  0  0
  -11.1185  -26.8851   29.7189 H   0  0  0  0  0  0  0  0  0  0  0  0
  -13.5871  -25.4301   29.6466 H   0  0  0  0  0  0  0  0  0  0  0  0
  -13.2221  -27.0642   29.1194 H   0  0  0  0  0  0  0  0  0  0  0  0
  -12.1779  -24.0101   27.9604 H   0  0  0  0  0  0  0  0  0  0  0  0
  -13.4265  -24.1209   25.2327 H   0  0  0  0  0  0  0  0  0  0  0  0
  -10.8357  -22.9348   26.1227 H   0  0  0  0  0  0  0  0  0  0  0  0
  -11.5318  -22.7166   24.5055 H   0  0  0  0  0  0  0  0  0  0  0  0
  -12.9094  -20.8814   25.0948 H   0  0  0  0  0  0  0  0  0  0  0  0
  -11.5573  -20.5674   26.0550 H   0  0  0  0  0  0  0  0  0  0  0  0
  -12.2528  -19.4283   28.5343 H   0  0  0  0  0  0  0  0  0  0  0  0
  -10.3388  -18.8932   28.1770 H   0  0  0  0  0  0  0  0  0  0  0  0
  -11.4080  -22.1094   31.3183 H   0  0  0  0  0  0  0  0  0  0  0  0
  -11.3410  -20.7618   33.4322 H   0  0  0  0  0  0  0  0  0  0  0  0
  -11.2138  -18.2667   32.9215 H   0  0  0  0  0  0  0  0  0  0  0  0
  -14.5723  -22.7846   27.1578 H   0  0  0  0  0  0  0  0  0  0  0  0
  -14.4445  -21.9501   25.6319 H   0  0  0  0  0  0  0  0  0  0  0  0
  1  2  1  0
  2  3  1  0
  2  4  1  0
  4  5  1  0
  5  6  1  0
  6  7  1  0
  7  8  2  0
  7  9  1  0
  9 10  1  0
 10 11  1  0
 11 12  1  0
 12 13  1  0
 13 14  1  0
 14 15  2  0
 14 16  1  0
 16 17  1  0
 16 18  1  0
 18 19  2  0
 19 20  1  0
 20 21  1  0
 21 22  2  0
 13 23  1  0
 23 10  1  0
 22 18  1  0
  1 24  1  0
  1 25  1  0
  1 26  1  0
  3 27  1  0
  3 28  1  0
  3 29  1  0
  4 30  1  0
  4 31  1  0
  5 32  1  0
  5 33  1  0
  6 34  1  0
  6 35  1  0
  9 36  1  0
 10 37  1  0
 11 38  1  0
 11 39  1  0
 12 40  1  0
 12 41  1  0
 16 42  1  0
 17 43  1  0
 19 44  1  0
 20 45  1  0
 21 46  1  0
 23 47  1  0
 23 48  1  0
M  END
>  <Energy>  (1300) 
155.14856925266199

>  <compound_id>  (1300) 
46391

>  <target_id>  (1300) 
1

>  <reference_id>  (1300) 
3

>  <inspiration_ids>  (1300) 
[3, 115]

>  <energy_score>  (1300) 
40.56728025476889

>  <distance_score>  (1300) 
2.033392767395549

>  <path>  (1300) 
/opt/xchem-fragalysis-2/maxwin/BulkDock/SCRATCH/511020/C46391-P3/C46391-P3.minimised.mol

>  <scratch_subdir>  (1300) 
/opt/xchem-fragalysis-2/maxwin/BulkDock/SCRATCH/511020/C46391-P3

>  <fragmenstein_runtime>  (1300) 
15.908822059631348

>  <fragmenstein_outcome>  (1300) 
too moved

>  <fragmenstein_mode>  (1300) 
expansion

>  <fragmenstein_error>  (1300) 


$$$$
C46391-P115
     RDKit          3D

 48 49  0  0  0  0  0  0  0  0999 V2000
   -7.7485  -27.7775   33.8799 C   0  0  0  0  0  0  0  0  0  0  0  0
   -8.7231  -28.0364   32.8151 N   0  0  0  0  0  0  0  0  0  0  0  0
   -9.5269  -29.1553   33.2911 C   0  0  0  0  0  0  0  0  0  0  0  0
   -9.5153  -26.8291   32.5264 C   0  0  0  0  0  0  0  0  0  0  0  0
  -10.3670  -26.8808   31.2376 C   0  0  0  0  0  0  0  0  0  0  0  0
   -9.6712  -26.4907   29.9639 C   0  0  0  0  0  0  0  0  0  0  0  0
  -10.6152  -25.9097   28.9672 C   0  0  0  0  0  0  0  0  0  0  0  0
  -11.2406  -26.5515   28.1830 O   0  0  0  0  0  0  0  0  0  0  0  0
  -10.6339  -24.5301   29.2545 N   0  0  0  0  0  0  0  0  0  0  0  0
  -11.4596  -23.4996   28.7758 C   0  0  0  0  0  0  0  0  0  0  0  0
  -11.0320  -22.1152   28.7932 C   0  0  0  0  0  0  0  0  0  0  0  0
  -11.4088  -21.6775   30.2221 C   0  0  0  0  0  0  0  0  0  0  0  0
  -12.0305  -22.7049   31.1600 N   0  0  0  0  0  0  0  0  0  0  0  0
  -11.0961  -23.1049   32.1508 C   0  0  0  0  0  0  0  0  0  0  0  0
  -10.2984  -24.0051   32.1546 O   0  0  0  0  0  0  0  0  0  0  0  0
  -11.3441  -22.2070   33.3794 C   0  0  0  0  0  0  0  0  0  0  0  0
  -12.4674  -21.3111   33.2316 O   0  0  0  0  0  0  0  0  0  0  0  0
  -10.2237  -21.4009   33.8931 C   0  0  0  0  0  0  0  0  0  0  0  0
   -9.5350  -21.5576   35.0700 C   0  0  0  0  0  0  0  0  0  0  0  0
   -8.9963  -20.3305   35.3328 N   0  0  0  0  0  0  0  0  0  0  0  0
   -9.3128  -19.5087   34.2965 C   0  0  0  0  0  0  0  0  0  0  0  0
  -10.0738  -20.1179   33.4179 N   0  0  0  0  0  0  0  0  0  0  0  0
  -12.3875  -23.3023   29.9161 C   0  0  0  0  0  0  0  0  0  0  0  0
   -8.2214  -27.7130   34.8636 H   0  0  0  0  0  0  0  0  0  0  0  0
   -7.0008  -28.5778   33.9160 H   0  0  0  0  0  0  0  0  0  0  0  0
   -7.2225  -26.8429   33.7230 H   0  0  0  0  0  0  0  0  0  0  0  0
  -10.3657  -29.3881   32.6372 H   0  0  0  0  0  0  0  0  0  0  0  0
   -9.9152  -28.9794   34.2969 H   0  0  0  0  0  0  0  0  0  0  0  0
   -8.9111  -30.0610   33.3495 H   0  0  0  0  0  0  0  0  0  0  0  0
  -10.1701  -26.6128   33.3805 H   0  0  0  0  0  0  0  0  0  0  0  0
   -8.8352  -25.9736   32.4415 H   0  0  0  0  0  0  0  0  0  0  0  0
  -10.7488  -27.8842   31.0561 H   0  0  0  0  0  0  0  0  0  0  0  0
  -11.2399  -26.2341   31.3877 H   0  0  0  0  0  0  0  0  0  0  0  0
   -9.2244  -27.3349   29.4795 H   0  0  0  0  0  0  0  0  0  0  0  0
   -8.9024  -25.7447   30.1812 H   0  0  0  0  0  0  0  0  0  0  0  0
  -10.0267  -24.3508   30.0424 H   0  0  0  0  0  0  0  0  0  0  0  0
  -11.8991  -23.8159   27.8277 H   0  0  0  0  0  0  0  0  0  0  0  0
  -10.0136  -21.9914   28.4805 H   0  0  0  0  0  0  0  0  0  0  0  0
  -11.6583  -21.5823   28.0769 H   0  0  0  0  0  0  0  0  0  0  0  0
  -12.1738  -20.9382   30.0525 H   0  0  0  0  0  0  0  0  0  0  0  0
  -10.6000  -21.1677   30.7393 H   0  0  0  0  0  0  0  0  0  0  0  0
  -11.6385  -22.9311   34.1465 H   0  0  0  0  0  0  0  0  0  0  0  0
  -12.0112  -20.4553   33.0929 H   0  0  0  0  0  0  0  0  0  0  0  0
   -9.4789  -22.3764   35.7719 H   0  0  0  0  0  0  0  0  0  0  0  0
   -8.4514  -20.0715   36.1434 H   0  0  0  0  0  0  0  0  0  0  0  0
   -8.9763  -18.4818   34.2467 H   0  0  0  0  0  0  0  0  0  0  0  0
  -12.6848  -24.3131   30.1528 H   0  0  0  0  0  0  0  0  0  0  0  0
  -13.2615  -22.6800   29.7503 H   0  0  0  0  0  0  0  0  0  0  0  0
  1  2  1  0
  2  3  1  0
  2  4  1  0
  4  5  1  0
  5  6  1  0
  6  7  1  0
  7  8  2  0
  7  9  1  0
  9 10  1  0
 10 11  1  0
 11 12  1  0
 12 13  1  0
 13 14  1  0
 14 15  2  0
 14 16  1  0
 16 17  1  0
 16 18  1  0
 18 19  2  0
 19 20  1  0
 20 21  1  0
 21 22  2  0
 13 23  1  0
 23 10  1  0
 22 18  1  0
  1 24  1  0
  1 25  1  0
  1 26  1  0
  3 27  1  0
  3 28  1  0
  3 29  1  0
  4 30  1  0
  4 31  1  0
  5 32  1  0
  5 33  1  0
  6 34  1  0
  6 35  1  0
  9 36  1  0
 10 37  1  0
 11 38  1  0
 11 39  1  0
 12 40  1  0
 12 41  1  0
 16 42  1  0
 17 43  1  0
 19 44  1  0
 20 45  1  0
 21 46  1  0
 23 47  1  0
 23 48  1  0
M  END
>  <Energy>  (1301) 
160.9076975431679

>  <compound_id>  (1301) 
46391

>  <target_id>  (1301) 
1

>  <reference_id>  (1301) 
115

>  <inspiration_ids>  (1301) 
[3, 115]

>  <energy_score>  (1301) 
46.3264085452754

>  <distance_score>  (1301) 
3.091110734871123

>  <path>  (1301) 
/opt/xchem-fragalysis-2/maxwin/BulkDock/SCRATCH/511020/C46391-P115/C46391-P115.minimised.mol

>  <scratch_subdir>  (1301) 
/opt/xchem-fragalysis-2/maxwin/BulkDock/SCRATCH/511020/C46391-P115

>  <fragmenstein_runtime>  (1301) 
10.274428367614746

>  <fragmenstein_outcome>  (1301) 
too moved

>  <fragmenstein_mode>  (1301) 
expansion

>  <fragmenstein_error>  (1301) 


$$$$
C60315-P52
     RDKit          3D

 31 34  0  0  0  0  0  0  0  0999 V2000
  -11.6213  -28.1165   28.2980 O   0  0  0  0  0  0  0  0  0  0  0  0
  -11.8341  -26.9145   28.2719 C   0  0  0  0  0  0  0  0  0  0  0  0
  -12.8225  -26.3239   29.0006 O   0  0  0  0  0  0  0  0  0  0  0  0
  -13.1561  -24.8913   28.9646 C   0  0  0  0  0  0  0  0  0  0  0  0
  -12.4126  -24.1851   30.0571 C   0  0  0  0  0  0  0  0  0  0  0  0
  -12.3932  -22.9137   30.4179 N   0  0  0  0  0  0  0  0  0  0  0  0
  -11.5543  -22.8578   31.5184 C   0  0  0  0  0  0  0  0  0  0  0  0
  -11.1027  -21.7874   32.2804 C   0  0  0  0  0  0  0  0  0  0  0  0
  -10.1237  -22.0566   33.2458 C   0  0  0  0  0  0  0  0  0  0  0  0
   -9.6545  -23.3337   33.5336 C   0  0  0  0  0  0  0  0  0  0  0  0
  -10.1536  -24.4011   32.8282 C   0  0  0  0  0  0  0  0  0  0  0  0
   -9.7067  -26.0123   33.1764 Cl  0  0  0  0  0  0  0  0  0  0  0  0
  -11.0705  -24.1148   31.8287 C   0  0  0  0  0  0  0  0  0  0  0  0
  -11.6893  -24.9319   30.9453 N   0  0  0  0  0  0  0  0  0  0  0  0
  -11.0002  -25.9784   27.5400 C   0  0  0  0  0  0  0  0  0  0  0  0
  -11.4217  -25.5429   26.3433 C   0  0  0  0  0  0  0  0  0  0  0  0
  -10.9389  -23.8709   26.0648 S   0  0  0  0  0  0  0  0  0  0  0  0
  -10.0957  -23.8794   27.5775 C   0  0  0  0  0  0  0  0  0  0  0  0
   -9.5188  -22.9900   28.3312 N   0  0  0  0  0  0  0  0  0  0  0  0
   -9.0946  -23.7294   29.4066 C   0  0  0  0  0  0  0  0  0  0  0  0
   -9.4025  -25.0527   29.2724 C   0  0  0  0  0  0  0  0  0  0  0  0
  -10.1267  -25.1139   28.1389 N   0  0  0  0  0  0  0  0  0  0  0  0
  -14.2232  -24.8715   29.1480 H   0  0  0  0  0  0  0  0  0  0  0  0
  -13.0218  -24.4355   27.9878 H   0  0  0  0  0  0  0  0  0  0  0  0
  -11.4290  -20.7761   32.0676 H   0  0  0  0  0  0  0  0  0  0  0  0
   -9.6797  -21.2171   33.7418 H   0  0  0  0  0  0  0  0  0  0  0  0
   -8.8949  -23.4768   34.2936 H   0  0  0  0  0  0  0  0  0  0  0  0
  -11.5770  -25.9351   30.9104 H   0  0  0  0  0  0  0  0  0  0  0  0
  -12.2046  -25.9931   25.7434 H   0  0  0  0  0  0  0  0  0  0  0  0
   -8.5960  -23.3348   30.2711 H   0  0  0  0  0  0  0  0  0  0  0  0
   -9.2797  -25.8310   29.9941 H   0  0  0  0  0  0  0  0  0  0  0  0
  1  2  2  0
  2  3  1  0
  3  4  1  0
  4  5  1  0
  5  6  2  0
  6  7  1  0
  7  8  2  0
  8  9  1  0
  9 10  2  0
 10 11  1  0
 11 12  1  0
 11 13  2  0
 13 14  1  0
  2 15  1  0
 15 16  2  0
 16 17  1  0
 17 18  1  0
 18 19  2  0
 19 20  1  0
 20 21  2  0
 21 22  1  0
 14  5  1  0
 22 15  1  0
 13  7  1  0
 22 18  1  0
  4 23  1  0
  4 24  1  0
  8 25  1  0
  9 26  1  0
 10 27  1  0
 14 28  1  0
 16 29  1  0
 20 30  1  0
 21 31  1  0
M  END
>  <Energy>  (1302) 
53.867251934497602

>  <compound_id>  (1302) 
60315

>  <target_id>  (1302) 
1

>  <reference_id>  (1302) 
52

>  <inspiration_ids>  (1302) 
[52, 45]

>  <energy_score>  (1302) 
10.636532943931115

>  <distance_score>  (1302) 
3.5410383420301925

>  <path>  (1302) 
/opt/xchem-fragalysis-2/maxwin/BulkDock/SCRATCH/511020/C60315-P52/C60315-P52.minimised.mol

>  <scratch_subdir>  (1302) 
/opt/xchem-fragalysis-2/maxwin/BulkDock/SCRATCH/511020/C60315-P52

>  <fragmenstein_runtime>  (1302) 
3.442558765411377

>  <fragmenstein_outcome>  (1302) 
too moved

>  <fragmenstein_mode>  (1302) 
expansion

>  <fragmenstein_error>  (1302) 


$$$$
C60315-P45
     RDKit          3D

 31 34  0  0  0  0  0  0  0  0999 V2000
  -11.3774  -26.1016   27.5256 O   0  0  0  0  0  0  0  0  0  0  0  0
  -10.3515  -25.4392   27.5854 C   0  0  0  0  0  0  0  0  0  0  0  0
  -10.2767  -24.1093   27.8187 O   0  0  0  0  0  0  0  0  0  0  0  0
  -11.5051  -23.4423   28.1549 C   0  0  0  0  0  0  0  0  0  0  0  0
  -11.4858  -23.1984   29.6269 C   0  0  0  0  0  0  0  0  0  0  0  0
  -10.8739  -23.9318   30.5324 N   0  0  0  0  0  0  0  0  0  0  0  0
  -11.1151  -23.3433   31.7391 C   0  0  0  0  0  0  0  0  0  0  0  0
  -10.7886  -23.8576   32.9937 C   0  0  0  0  0  0  0  0  0  0  0  0
  -11.5218  -23.3706   34.0603 C   0  0  0  0  0  0  0  0  0  0  0  0
  -12.3814  -22.2967   33.9199 C   0  0  0  0  0  0  0  0  0  0  0  0
  -12.7045  -21.7941   32.6748 C   0  0  0  0  0  0  0  0  0  0  0  0
  -14.3831  -21.3098   32.5484 Cl  0  0  0  0  0  0  0  0  0  0  0  0
  -11.9821  -22.2672   31.5814 C   0  0  0  0  0  0  0  0  0  0  0  0
  -12.1384  -22.1573   30.2256 N   0  0  0  0  0  0  0  0  0  0  0  0
   -9.0094  -25.9979   27.3428 C   0  0  0  0  0  0  0  0  0  0  0  0
   -8.8385  -27.3068   27.0524 C   0  0  0  0  0  0  0  0  0  0  0  0
   -7.1632  -27.7472   26.7430 S   0  0  0  0  0  0  0  0  0  0  0  0
   -6.7184  -26.0970   27.0320 C   0  0  0  0  0  0  0  0  0  0  0  0
   -5.5870  -25.4576   27.1221 N   0  0  0  0  0  0  0  0  0  0  0  0
   -5.9506  -24.1977   27.5269 C   0  0  0  0  0  0  0  0  0  0  0  0
   -7.3171  -24.0932   27.6591 C   0  0  0  0  0  0  0  0  0  0  0  0
   -7.7983  -25.3352   27.3563 N   0  0  0  0  0  0  0  0  0  0  0  0
  -12.3807  -24.0204   27.8595 H   0  0  0  0  0  0  0  0  0  0  0  0
  -11.5206  -22.4943   27.6096 H   0  0  0  0  0  0  0  0  0  0  0  0
  -10.1814  -24.7517   33.0901 H   0  0  0  0  0  0  0  0  0  0  0  0
  -11.5357  -23.9162   34.9960 H   0  0  0  0  0  0  0  0  0  0  0  0
  -13.0333  -22.0125   34.7299 H   0  0  0  0  0  0  0  0  0  0  0  0
  -12.7465  -21.5146   29.7514 H   0  0  0  0  0  0  0  0  0  0  0  0
   -9.6294  -28.0440   26.9827 H   0  0  0  0  0  0  0  0  0  0  0  0
   -5.2091  -23.4397   27.7332 H   0  0  0  0  0  0  0  0  0  0  0  0
   -7.9442  -23.2787   27.9825 H   0  0  0  0  0  0  0  0  0  0  0  0
  1  2  2  0
  2  3  1  0
  3  4  1  0
  4  5  1  0
  5  6  2  0
  6  7  1  0
  7  8  2  0
  8  9  1  0
  9 10  2  0
 10 11  1  0
 11 12  1  0
 11 13  2  0
 13 14  1  0
  2 15  1  0
 15 16  2  0
 16 17  1  0
 17 18  1  0
 18 19  2  0
 19 20  1  0
 20 21  2  0
 21 22  1  0
 14  5  1  0
 22 15  1  0
 13  7  1  0
 22 18  1  0
  4 23  1  0
  4 24  1  0
  8 25  1  0
  9 26  1  0
 10 27  1  0
 14 28  1  0
 16 29  1  0
 20 30  1  0
 21 31  1  0
M  END
>  <Energy>  (1303) 
27.160630305975136

>  <compound_id>  (1303) 
60315

>  <target_id>  (1303) 
1

>  <reference_id>  (1303) 
45

>  <inspiration_ids>  (1303) 
[52, 45]

>  <energy_score>  (1303) 
-16.070088684589564

>  <distance_score>  (1303) 
2.351763967151906

>  <path>  (1303) 
/opt/xchem-fragalysis-2/maxwin/BulkDock/SCRATCH/511020/C60315-P45/C60315-P45.minimised.mol

>  <scratch_subdir>  (1303) 
/opt/xchem-fragalysis-2/maxwin/BulkDock/SCRATCH/511020/C60315-P45

>  <fragmenstein_runtime>  (1303) 
4.728919982910156

>  <fragmenstein_outcome>  (1303) 
too moved

>  <fragmenstein_mode>  (1303) 
expansion

>  <fragmenstein_error>  (1303) 


$$$$
C60317-P52
     RDKit          3D

 28 31  0  0  0  0  0  0  0  0999 V2000
   -8.9438  -32.2622   25.7043 C   0  0  0  0  0  0  0  0  0  0  0  0
   -8.7413  -30.8817   26.2291 C   0  0  0  0  0  0  0  0  0  0  0  0
   -7.8409  -30.0606   25.5648 C   0  0  0  0  0  0  0  0  0  0  0  0
   -7.5757  -28.7954   26.0803 C   0  0  0  0  0  0  0  0  0  0  0  0
   -6.4194  -28.2280   25.7426 F   0  0  0  0  0  0  0  0  0  0  0  0
   -8.4910  -28.2232   26.9591 C   0  0  0  0  0  0  0  0  0  0  0  0
   -8.9605  -26.8734   27.1558 N   0  0  0  0  0  0  0  0  0  0  0  0
  -10.2882  -26.8086   27.7314 C   0  0  0  0  0  0  0  0  0  0  0  0
  -10.7277  -25.5974   28.4034 C   0  0  0  0  0  0  0  0  0  0  0  0
  -10.8289  -25.5026   29.7520 C   0  0  0  0  0  0  0  0  0  0  0  0
  -11.1500  -24.2301   30.1939 N   0  0  0  0  0  0  0  0  0  0  0  0
  -11.2753  -23.5828   31.3865 C   0  0  0  0  0  0  0  0  0  0  0  0
  -11.6650  -22.3023   31.0366 C   0  0  0  0  0  0  0  0  0  0  0  0
  -11.7158  -22.1421   29.6608 N   0  0  0  0  0  0  0  0  0  0  0  0
  -11.3702  -23.3179   29.2121 C   0  0  0  0  0  0  0  0  0  0  0  0
  -11.0865  -24.0319   27.6353 S   0  0  0  0  0  0  0  0  0  0  0  0
  -10.5893  -28.1189   28.0128 N   0  0  0  0  0  0  0  0  0  0  0  0
   -9.4364  -29.0273   27.5977 C   0  0  0  0  0  0  0  0  0  0  0  0
   -9.5146  -30.3914   27.3056 C   0  0  0  0  0  0  0  0  0  0  0  0
   -8.0631  -32.8842   25.8765 H   0  0  0  0  0  0  0  0  0  0  0  0
   -9.7974  -32.7524   26.1850 H   0  0  0  0  0  0  0  0  0  0  0  0
   -9.1448  -32.2470   24.6275 H   0  0  0  0  0  0  0  0  0  0  0  0
   -7.2001  -30.4528   24.7776 H   0  0  0  0  0  0  0  0  0  0  0  0
   -8.2924  -26.2454   27.5424 H   0  0  0  0  0  0  0  0  0  0  0  0
  -10.6546  -26.2727   30.4797 H   0  0  0  0  0  0  0  0  0  0  0  0
  -11.0912  -24.0470   32.3421 H   0  0  0  0  0  0  0  0  0  0  0  0
  -11.8975  -21.4820   31.7054 H   0  0  0  0  0  0  0  0  0  0  0  0
  -10.3521  -30.9684   27.6772 H   0  0  0  0  0  0  0  0  0  0  0  0
  1  2  1  0
  2  3  2  0
  3  4  1  0
  4  5  1  0
  4  6  2  0
  6  7  1  0
  7  8  1  0
  8  9  1  0
  9 10  2  0
 10 11  1  0
 11 12  1  0
 12 13  2  0
 13 14  1  0
 14 15  2  0
 15 16  1  0
  8 17  2  0
 17 18  1  0
 18 19  2  0
 19  2  1  0
 18  6  1  0
 16  9  1  0
 15 11  1  0
  1 20  1  0
  1 21  1  0
  1 22  1  0
  3 23  1  0
  7 24  1  0
 10 25  1  0
 12 26  1  0
 13 27  1  0
 19 28  1  0
M  END
>  <Energy>  (1304) 
73.244187742160022

>  <compound_id>  (1304) 
60317

>  <target_id>  (1304) 
1

>  <reference_id>  (1304) 
52

>  <inspiration_ids>  (1304) 
[52, 45]

>  <energy_score>  (1304) 
24.218111496662004

>  <distance_score>  (1304) 
3.2022193793036173

>  <path>  (1304) 
/opt/xchem-fragalysis-2/maxwin/BulkDock/SCRATCH/511020/C60317-P52/C60317-P52.minimised.mol

>  <scratch_subdir>  (1304) 
/opt/xchem-fragalysis-2/maxwin/BulkDock/SCRATCH/511020/C60317-P52

>  <fragmenstein_runtime>  (1304) 
3.7611584663391113

>  <fragmenstein_outcome>  (1304) 
too moved

>  <fragmenstein_mode>  (1304) 
expansion

>  <fragmenstein_error>  (1304) 


$$$$
C60317-P45
     RDKit          3D

 28 31  0  0  0  0  0  0  0  0999 V2000
   -7.8877  -29.7997   25.5123 C   0  0  0  0  0  0  0  0  0  0  0  0
   -7.8114  -28.5316   26.2867 C   0  0  0  0  0  0  0  0  0  0  0  0
   -6.6328  -27.7909   26.4601 C   0  0  0  0  0  0  0  0  0  0  0  0
   -6.6800  -26.4954   26.9845 C   0  0  0  0  0  0  0  0  0  0  0  0
   -5.5694  -25.7612   27.1197 F   0  0  0  0  0  0  0  0  0  0  0  0
   -7.9175  -26.0071   27.3953 C   0  0  0  0  0  0  0  0  0  0  0  0
   -8.3575  -24.8528   28.0040 N   0  0  0  0  0  0  0  0  0  0  0  0
   -9.7032  -25.0316   28.2875 C   0  0  0  0  0  0  0  0  0  0  0  0
  -10.4167  -24.2426   29.1982 C   0  0  0  0  0  0  0  0  0  0  0  0
  -10.3706  -24.4968   30.5207 C   0  0  0  0  0  0  0  0  0  0  0  0
  -11.0353  -23.5143   31.2352 N   0  0  0  0  0  0  0  0  0  0  0  0
  -11.1612  -23.1653   32.5450 C   0  0  0  0  0  0  0  0  0  0  0  0
  -11.8359  -21.9605   32.5027 C   0  0  0  0  0  0  0  0  0  0  0  0
  -12.1244  -21.5895   31.2010 N   0  0  0  0  0  0  0  0  0  0  0  0
  -11.6442  -22.5582   30.4812 C   0  0  0  0  0  0  0  0  0  0  0  0
  -11.4090  -22.8500   28.7792 S   0  0  0  0  0  0  0  0  0  0  0  0
  -10.1523  -26.1385   27.7623 N   0  0  0  0  0  0  0  0  0  0  0  0
   -9.0656  -26.7720   27.2815 C   0  0  0  0  0  0  0  0  0  0  0  0
   -9.0308  -28.0406   26.7365 C   0  0  0  0  0  0  0  0  0  0  0  0
   -6.9019  -30.0844   25.1419 H   0  0  0  0  0  0  0  0  0  0  0  0
   -8.3376  -30.5795   26.1315 H   0  0  0  0  0  0  0  0  0  0  0  0
   -8.5315  -29.6766   24.6359 H   0  0  0  0  0  0  0  0  0  0  0  0
   -5.6788  -28.1728   26.1066 H   0  0  0  0  0  0  0  0  0  0  0  0
   -7.7788  -24.0789   28.2979 H   0  0  0  0  0  0  0  0  0  0  0  0
   -9.8172  -25.2746   31.0305 H   0  0  0  0  0  0  0  0  0  0  0  0
  -10.8018  -23.7776   33.3594 H   0  0  0  0  0  0  0  0  0  0  0  0
  -12.1455  -21.3526   33.3446 H   0  0  0  0  0  0  0  0  0  0  0  0
   -9.9506  -28.6027   26.6111 H   0  0  0  0  0  0  0  0  0  0  0  0
  1  2  1  0
  2  3  2  0
  3  4  1  0
  4  5  1  0
  4  6  2  0
  6  7  1  0
  7  8  1  0
  8  9  1  0
  9 10  2  0
 10 11  1  0
 11 12  1  0
 12 13  2  0
 13 14  1  0
 14 15  2  0
 15 16  1  0
  8 17  2  0
 17 18  1  0
 18 19  2  0
 19  2  1  0
 18  6  1  0
 16  9  1  0
 15 11  1  0
  1 20  1  0
  1 21  1  0
  1 22  1  0
  3 23  1  0
  7 24  1  0
 10 25  1  0
 12 26  1  0
 13 27  1  0
 19 28  1  0
M  END
>  <Energy>  (1305) 
33.060900083021039

>  <compound_id>  (1305) 
60317

>  <target_id>  (1305) 
1

>  <reference_id>  (1305) 
45

>  <inspiration_ids>  (1305) 
[52, 45]

>  <energy_score>  (1305) 
-15.96517616248002

>  <distance_score>  (1305) 
2.030965629869753

>  <path>  (1305) 
/opt/xchem-fragalysis-2/maxwin/BulkDock/SCRATCH/511020/C60317-P45/C60317-P45.minimised.mol

>  <scratch_subdir>  (1305) 
/opt/xchem-fragalysis-2/maxwin/BulkDock/SCRATCH/511020/C60317-P45

>  <fragmenstein_runtime>  (1305) 
2.9660093784332275

>  <fragmenstein_outcome>  (1305) 
too moved

>  <fragmenstein_mode>  (1305) 
expansion

>  <fragmenstein_error>  (1305) 


$$$$
C60321-P52
     RDKit          3D

 35 38  0  0  0  0  0  0  0  0999 V2000
   -9.5951  -23.7033   34.9247 C   0  0  0  0  0  0  0  0  0  0  0  0
  -10.1933  -23.3218   33.6339 C   0  0  0  0  0  0  0  0  0  0  0  0
  -11.0173  -22.1905   33.5687 C   0  0  0  0  0  0  0  0  0  0  0  0
  -11.7639  -21.9027   32.4374 C   0  0  0  0  0  0  0  0  0  0  0  0
  -11.7194  -22.8767   31.4530 C   0  0  0  0  0  0  0  0  0  0  0  0
  -12.4657  -23.0822   30.3217 N   0  0  0  0  0  0  0  0  0  0  0  0
  -12.2203  -24.3693   29.9226 C   0  0  0  0  0  0  0  0  0  0  0  0
  -13.2336  -25.2243   28.8211 S   0  0  0  0  0  0  0  0  0  0  0  0
  -12.6716  -26.9948   28.9796 C   0  0  0  0  0  0  0  0  0  0  0  0
  -11.3955  -27.3847   28.2257 C   0  0  0  0  0  0  0  0  0  0  0  0
  -10.8138  -28.6435   28.3639 C   0  0  0  0  0  0  0  0  0  0  0  0
   -9.4101  -29.0431   27.6593 C   0  0  0  0  0  0  0  0  0  0  0  0
   -8.7037  -27.9716   27.1157 C   0  0  0  0  0  0  0  0  0  0  0  0
   -9.3042  -26.6220   27.3113 N   0  0  0  0  0  0  0  0  0  0  0  0
   -8.9421  -25.5775   28.2411 C   0  0  0  0  0  0  0  0  0  0  0  0
   -9.8558  -24.5756   28.0161 C   0  0  0  0  0  0  0  0  0  0  0  0
  -10.8522  -25.0980   27.2610 N   0  0  0  0  0  0  0  0  0  0  0  0
  -10.6649  -26.3952   27.4527 C   0  0  0  0  0  0  0  0  0  0  0  0
  -11.2283  -24.9104   30.5692 N   0  0  0  0  0  0  0  0  0  0  0  0
  -10.9055  -24.0002   31.5169 C   0  0  0  0  0  0  0  0  0  0  0  0
  -10.0171  -24.1801   32.5575 C   0  0  0  0  0  0  0  0  0  0  0  0
   -9.5919  -24.7895   35.0310 H   0  0  0  0  0  0  0  0  0  0  0  0
  -10.2353  -23.3130   35.7115 H   0  0  0  0  0  0  0  0  0  0  0  0
   -8.5901  -23.3010   35.0156 H   0  0  0  0  0  0  0  0  0  0  0  0
  -11.1579  -21.5554   34.4404 H   0  0  0  0  0  0  0  0  0  0  0  0
  -12.4508  -21.0662   32.4032 H   0  0  0  0  0  0  0  0  0  0  0  0
  -13.2405  -22.5169   30.0178 H   0  0  0  0  0  0  0  0  0  0  0  0
  -12.5698  -27.2327   30.0442 H   0  0  0  0  0  0  0  0  0  0  0  0
  -13.4950  -27.6004   28.5846 H   0  0  0  0  0  0  0  0  0  0  0  0
  -11.2937  -29.4241   28.9435 H   0  0  0  0  0  0  0  0  0  0  0  0
   -9.0895  -30.0739   27.6388 H   0  0  0  0  0  0  0  0  0  0  0  0
   -7.7084  -28.0552   26.7026 H   0  0  0  0  0  0  0  0  0  0  0  0
   -8.0473  -25.6237   28.8380 H   0  0  0  0  0  0  0  0  0  0  0  0
   -9.8505  -23.5500   28.3591 H   0  0  0  0  0  0  0  0  0  0  0  0
   -9.3959  -25.0672   32.6171 H   0  0  0  0  0  0  0  0  0  0  0  0
  1  2  1  0
  2  3  2  0
  3  4  1  0
  4  5  2  0
  5  6  1  0
  6  7  1  0
  7  8  1  0
  8  9  1  0
  9 10  1  0
 10 11  2  0
 11 12  1  0
 12 13  2  0
 13 14  1  0
 14 15  1  0
 15 16  2  0
 16 17  1  0
 17 18  2  0
  7 19  2  0
 19 20  1  0
 20 21  2  0
 21  2  1  0
 20  5  1  0
 18 10  1  0
 18 14  1  0
  1 22  1  0
  1 23  1  0
  1 24  1  0
  3 25  1  0
  4 26  1  0
  6 27  1  0
  9 28  1  0
  9 29  1  0
 11 30  1  0
 12 31  1  0
 13 32  1  0
 15 33  1  0
 16 34  1  0
 21 35  1  0
M  END
>  <Energy>  (1306) 
112.34763469654612

>  <compound_id>  (1306) 
60321

>  <target_id>  (1306) 
1

>  <reference_id>  (1306) 
52

>  <inspiration_ids>  (1306) 
[52, 45]

>  <energy_score>  (1306) 
60.84438744665033

>  <distance_score>  (1306) 
2.990784815539353

>  <path>  (1306) 
/opt/xchem-fragalysis-2/maxwin/BulkDock/SCRATCH/511020/C60321-P52/C60321-P52.minimised.mol

>  <scratch_subdir>  (1306) 
/opt/xchem-fragalysis-2/maxwin/BulkDock/SCRATCH/511020/C60321-P52

>  <fragmenstein_runtime>  (1306) 
4.074119567871094

>  <fragmenstein_outcome>  (1306) 
too moved

>  <fragmenstein_mode>  (1306) 
expansion

>  <fragmenstein_error>  (1306) 


$$$$
C60321-P45
     RDKit          3D

 35 38  0  0  0  0  0  0  0  0999 V2000
  -10.1318  -25.6414   34.4391 C   0  0  0  0  0  0  0  0  0  0  0  0
  -10.3633  -24.6245   33.3878 C   0  0  0  0  0  0  0  0  0  0  0  0
  -11.1903  -23.4973   33.5591 C   0  0  0  0  0  0  0  0  0  0  0  0
  -11.5248  -22.6371   32.5051 C   0  0  0  0  0  0  0  0  0  0  0  0
  -11.2357  -23.1744   31.2549 C   0  0  0  0  0  0  0  0  0  0  0  0
  -11.6100  -22.8911   29.9564 N   0  0  0  0  0  0  0  0  0  0  0  0
  -11.0665  -23.8755   29.1704 C   0  0  0  0  0  0  0  0  0  0  0  0
  -11.1217  -23.9822   27.4669 S   0  0  0  0  0  0  0  0  0  0  0  0
  -10.6033  -25.7236   27.2022 C   0  0  0  0  0  0  0  0  0  0  0  0
   -9.1209  -26.1386   27.1635 C   0  0  0  0  0  0  0  0  0  0  0  0
   -8.8780  -27.4666   26.9496 C   0  0  0  0  0  0  0  0  0  0  0  0
   -7.5527  -28.0395   26.7469 C   0  0  0  0  0  0  0  0  0  0  0  0
   -6.4895  -27.2267   26.7862 C   0  0  0  0  0  0  0  0  0  0  0  0
   -6.6967  -25.8779   27.0458 N   0  0  0  0  0  0  0  0  0  0  0  0
   -5.7590  -24.8879   27.1950 C   0  0  0  0  0  0  0  0  0  0  0  0
   -6.4663  -23.7646   27.5365 C   0  0  0  0  0  0  0  0  0  0  0  0
   -7.8106  -24.0193   27.5662 N   0  0  0  0  0  0  0  0  0  0  0  0
   -7.9517  -25.2962   27.2678 C   0  0  0  0  0  0  0  0  0  0  0  0
  -10.3972  -24.7527   29.8513 N   0  0  0  0  0  0  0  0  0  0  0  0
  -10.4132  -24.2967   31.1119 C   0  0  0  0  0  0  0  0  0  0  0  0
   -9.8062  -24.9315   32.1699 C   0  0  0  0  0  0  0  0  0  0  0  0
   -9.0871  -25.5899   34.7530 H   0  0  0  0  0  0  0  0  0  0  0  0
  -10.3421  -26.6322   34.0440 H   0  0  0  0  0  0  0  0  0  0  0  0
  -10.7873  -25.4962   35.2861 H   0  0  0  0  0  0  0  0  0  0  0  0
  -11.6575  -23.3181   34.5276 H   0  0  0  0  0  0  0  0  0  0  0  0
  -12.1784  -21.7863   32.6505 H   0  0  0  0  0  0  0  0  0  0  0  0
  -12.1985  -22.1424   29.6265 H   0  0  0  0  0  0  0  0  0  0  0  0
  -11.1377  -26.3527   27.9254 H   0  0  0  0  0  0  0  0  0  0  0  0
  -11.0231  -25.9757   26.2195 H   0  0  0  0  0  0  0  0  0  0  0  0
   -9.7026  -28.1695   26.8458 H   0  0  0  0  0  0  0  0  0  0  0  0
   -7.4609  -29.1005   26.5321 H   0  0  0  0  0  0  0  0  0  0  0  0
   -5.4720  -27.5609   26.6229 H   0  0  0  0  0  0  0  0  0  0  0  0
   -4.7031  -25.0860   27.0846 H   0  0  0  0  0  0  0  0  0  0  0  0
   -6.0777  -22.7823   27.7644 H   0  0  0  0  0  0  0  0  0  0  0  0
   -9.1863  -25.8091   32.0165 H   0  0  0  0  0  0  0  0  0  0  0  0
  1  2  1  0
  2  3  2  0
  3  4  1  0
  4  5  2  0
  5  6  1  0
  6  7  1  0
  7  8  1  0
  8  9  1  0
  9 10  1  0
 10 11  2  0
 11 12  1  0
 12 13  2  0
 13 14  1  0
 14 15  1  0
 15 16  2  0
 16 17  1  0
 17 18  2  0
  7 19  2  0
 19 20  1  0
 20 21  2  0
 21  2  1  0
 20  5  1  0
 18 10  1  0
 18 14  1  0
  1 22  1  0
  1 23  1  0
  1 24  1  0
  3 25  1  0
  4 26  1  0
  6 27  1  0
  9 28  1  0
  9 29  1  0
 11 30  1  0
 12 31  1  0
 13 32  1  0
 15 33  1  0
 16 34  1  0
 21 35  1  0
M  END
>  <Energy>  (1307) 
48.432357114477526

>  <compound_id>  (1307) 
60321

>  <target_id>  (1307) 
1

>  <reference_id>  (1307) 
45

>  <inspiration_ids>  (1307) 
[52, 45]

>  <energy_score>  (1307) 
-3.0708901354159934

>  <distance_score>  (1307) 
1.8689203170626563

>  <path>  (1307) 
/opt/xchem-fragalysis-2/maxwin/BulkDock/SCRATCH/511020/C60321-P45/C60321-P45.minimised.mol

>  <scratch_subdir>  (1307) 
/opt/xchem-fragalysis-2/maxwin/BulkDock/SCRATCH/511020/C60321-P45

>  <fragmenstein_runtime>  (1307) 
2.5112054347991943

>  <fragmenstein_outcome>  (1307) 
too moved

>  <fragmenstein_mode>  (1307) 
expansion

>  <fragmenstein_error>  (1307) 


$$$$
C60322-P52
     RDKit          3D

 35 38  0  0  0  0  0  0  0  0999 V2000
   -9.5144  -23.8941   34.5117 C   0  0  0  0  0  0  0  0  0  0  0  0
  -10.4326  -22.8326   34.0410 C   0  0  0  0  0  0  0  0  0  0  0  0
  -11.6723  -22.6224   34.6294 C   0  0  0  0  0  0  0  0  0  0  0  0
  -12.6576  -21.7877   34.1183 C   0  0  0  0  0  0  0  0  0  0  0  0
  -12.3633  -21.3664   32.8455 C   0  0  0  0  0  0  0  0  0  0  0  0
  -13.1978  -21.1921   31.7594 N   0  0  0  0  0  0  0  0  0  0  0  0
  -12.3602  -21.4308   30.6982 C   0  0  0  0  0  0  0  0  0  0  0  0
  -12.6867  -22.7926   29.6966 S   0  0  0  0  0  0  0  0  0  0  0  0
  -11.2878  -23.8969   30.2388 C   0  0  0  0  0  0  0  0  0  0  0  0
  -11.3527  -25.0875   29.3423 C   0  0  0  0  0  0  0  0  0  0  0  0
  -11.7855  -26.2979   29.7500 C   0  0  0  0  0  0  0  0  0  0  0  0
  -12.2368  -27.2520   28.7544 C   0  0  0  0  0  0  0  0  0  0  0  0
  -12.2667  -26.9211   27.4515 C   0  0  0  0  0  0  0  0  0  0  0  0
  -11.6686  -25.7108   27.0063 C   0  0  0  0  0  0  0  0  0  0  0  0
  -11.5402  -25.1855   25.8104 N   0  0  0  0  0  0  0  0  0  0  0  0
  -10.9955  -23.9475   26.0095 C   0  0  0  0  0  0  0  0  0  0  0  0
  -10.6891  -23.7525   27.3265 C   0  0  0  0  0  0  0  0  0  0  0  0
  -11.1856  -24.8547   27.9760 N   0  0  0  0  0  0  0  0  0  0  0  0
  -11.1381  -21.0648   30.9764 N   0  0  0  0  0  0  0  0  0  0  0  0
  -11.0929  -21.4200   32.2827 C   0  0  0  0  0  0  0  0  0  0  0  0
  -10.0692  -22.1000   32.9319 C   0  0  0  0  0  0  0  0  0  0  0  0
   -8.5644  -23.4384   34.7842 H   0  0  0  0  0  0  0  0  0  0  0  0
   -9.3780  -24.6369   33.7197 H   0  0  0  0  0  0  0  0  0  0  0  0
   -9.9055  -24.4123   35.3820 H   0  0  0  0  0  0  0  0  0  0  0  0
  -11.9412  -23.2287   35.4694 H   0  0  0  0  0  0  0  0  0  0  0  0
  -13.6576  -21.7753   34.5372 H   0  0  0  0  0  0  0  0  0  0  0  0
  -14.1662  -21.4779   31.7849 H   0  0  0  0  0  0  0  0  0  0  0  0
  -10.3167  -23.4017   30.1517 H   0  0  0  0  0  0  0  0  0  0  0  0
  -11.4482  -24.1808   31.2830 H   0  0  0  0  0  0  0  0  0  0  0  0
  -11.9747  -26.5246   30.7931 H   0  0  0  0  0  0  0  0  0  0  0  0
  -12.6716  -28.1859   29.0975 H   0  0  0  0  0  0  0  0  0  0  0  0
  -12.7186  -27.5696   26.7109 H   0  0  0  0  0  0  0  0  0  0  0  0
  -10.8334  -23.2634   25.1909 H   0  0  0  0  0  0  0  0  0  0  0  0
  -10.2383  -22.9150   27.8394 H   0  0  0  0  0  0  0  0  0  0  0  0
   -9.1246  -22.3129   32.4541 H   0  0  0  0  0  0  0  0  0  0  0  0
  1  2  1  0
  2  3  2  0
  3  4  1  0
  4  5  2  0
  5  6  1  0
  6  7  1  0
  7  8  1  0
  8  9  1  0
  9 10  1  0
 10 11  2  0
 11 12  1  0
 12 13  2  0
 13 14  1  0
 14 15  2  0
 15 16  1  0
 16 17  2  0
 17 18  1  0
  7 19  2  0
 19 20  1  0
 20 21  2  0
 21  2  1  0
 20  5  1  0
 18 10  1  0
 18 14  1  0
  1 22  1  0
  1 23  1  0
  1 24  1  0
  3 25  1  0
  4 26  1  0
  6 27  1  0
  9 28  1  0
  9 29  1  0
 11 30  1  0
 12 31  1  0
 13 32  1  0
 16 33  1  0
 17 34  1  0
 21 35  1  0
M  END
>  <Energy>  (1308) 
70.787122591030041

>  <compound_id>  (1308) 
60322

>  <target_id>  (1308) 
1

>  <reference_id>  (1308) 
52

>  <inspiration_ids>  (1308) 
[52, 45]

>  <energy_score>  (1308) 
23.842984080129725

>  <distance_score>  (1308) 
4.094683057497082

>  <path>  (1308) 
/opt/xchem-fragalysis-2/maxwin/BulkDock/SCRATCH/511020/C60322-P52/C60322-P52.minimised.mol

>  <scratch_subdir>  (1308) 
/opt/xchem-fragalysis-2/maxwin/BulkDock/SCRATCH/511020/C60322-P52

>  <fragmenstein_runtime>  (1308) 
6.7425856590271

>  <fragmenstein_outcome>  (1308) 
too moved

>  <fragmenstein_mode>  (1308) 
expansion

>  <fragmenstein_error>  (1308) 


$$$$
C60322-P45
     RDKit          3D

 35 38  0  0  0  0  0  0  0  0999 V2000
  -10.1192  -25.6142   34.3841 C   0  0  0  0  0  0  0  0  0  0  0  0
  -10.3348  -24.6112   33.3118 C   0  0  0  0  0  0  0  0  0  0  0  0
  -11.1553  -23.4773   33.4579 C   0  0  0  0  0  0  0  0  0  0  0  0
  -11.5135  -22.6574   32.3767 C   0  0  0  0  0  0  0  0  0  0  0  0
  -11.2346  -23.2256   31.1349 C   0  0  0  0  0  0  0  0  0  0  0  0
  -11.6406  -22.9912   29.8323 N   0  0  0  0  0  0  0  0  0  0  0  0
  -11.0709  -23.9751   29.0614 C   0  0  0  0  0  0  0  0  0  0  0  0
  -11.1645  -24.1890   27.3542 S   0  0  0  0  0  0  0  0  0  0  0  0
  -10.5302  -25.9029   27.2160 C   0  0  0  0  0  0  0  0  0  0  0  0
   -9.0522  -26.3085   27.1393 C   0  0  0  0  0  0  0  0  0  0  0  0
   -8.8134  -27.6223   26.8761 C   0  0  0  0  0  0  0  0  0  0  0  0
   -7.4750  -28.1278   26.6763 C   0  0  0  0  0  0  0  0  0  0  0  0
   -6.4201  -27.3042   26.7360 C   0  0  0  0  0  0  0  0  0  0  0  0
   -6.6126  -25.9299   27.0356 C   0  0  0  0  0  0  0  0  0  0  0  0
   -5.7226  -24.9708   27.1792 N   0  0  0  0  0  0  0  0  0  0  0  0
   -6.4211  -23.8788   27.5761 C   0  0  0  0  0  0  0  0  0  0  0  0
   -7.7559  -24.1708   27.6560 C   0  0  0  0  0  0  0  0  0  0  0  0
   -7.9173  -25.4784   27.2704 N   0  0  0  0  0  0  0  0  0  0  0  0
  -10.3271  -24.7831   29.7532 N   0  0  0  0  0  0  0  0  0  0  0  0
  -10.3896  -24.3348   31.0157 C   0  0  0  0  0  0  0  0  0  0  0  0
   -9.7871  -24.9461   32.0941 C   0  0  0  0  0  0  0  0  0  0  0  0
   -9.0768  -25.5737   34.7070 H   0  0  0  0  0  0  0  0  0  0  0  0
  -10.3392  -26.6086   34.0020 H   0  0  0  0  0  0  0  0  0  0  0  0
  -10.7830  -25.4534   35.2246 H   0  0  0  0  0  0  0  0  0  0  0  0
  -11.6141  -23.2681   34.4250 H   0  0  0  0  0  0  0  0  0  0  0  0
  -12.1741  -21.8086   32.5061 H   0  0  0  0  0  0  0  0  0  0  0  0
  -12.2865  -22.2904   29.5027 H   0  0  0  0  0  0  0  0  0  0  0  0
  -11.0134  -26.5013   28.0000 H   0  0  0  0  0  0  0  0  0  0  0  0
  -10.9848  -26.2494   26.2775 H   0  0  0  0  0  0  0  0  0  0  0  0
   -9.6218  -28.3381   26.7470 H   0  0  0  0  0  0  0  0  0  0  0  0
   -7.3488  -29.1795   26.4316 H   0  0  0  0  0  0  0  0  0  0  0  0
   -5.4094  -27.6537   26.5519 H   0  0  0  0  0  0  0  0  0  0  0  0
   -5.9293  -22.9437   27.8048 H   0  0  0  0  0  0  0  0  0  0  0  0
   -8.5730  -23.5575   27.9798 H   0  0  0  0  0  0  0  0  0  0  0  0
   -9.1593  -25.8222   31.9623 H   0  0  0  0  0  0  0  0  0  0  0  0
  1  2  1  0
  2  3  2  0
  3  4  1  0
  4  5  2  0
  5  6  1  0
  6  7  1  0
  7  8  1  0
  8  9  1  0
  9 10  1  0
 10 11  2  0
 11 12  1  0
 12 13  2  0
 13 14  1  0
 14 15  2  0
 15 16  1  0
 16 17  2  0
 17 18  1  0
  7 19  2  0
 19 20  1  0
 20 21  2  0
 21  2  1  0
 20  5  1  0
 18 10  1  0
 18 14  1  0
  1 22  1  0
  1 23  1  0
  1 24  1  0
  3 25  1  0
  4 26  1  0
  6 27  1  0
  9 28  1  0
  9 29  1  0
 11 30  1  0
 12 31  1  0
 13 32  1  0
 16 33  1  0
 17 34  1  0
 21 35  1  0
M  END
>  <Energy>  (1309) 
47.90451463734076

>  <compound_id>  (1309) 
60322

>  <target_id>  (1309) 
1

>  <reference_id>  (1309) 
45

>  <inspiration_ids>  (1309) 
[52, 45]

>  <energy_score>  (1309) 
1.2001613480148308

>  <distance_score>  (1309) 
2.2331187003976263

>  <path>  (1309) 
/opt/xchem-fragalysis-2/maxwin/BulkDock/SCRATCH/511020/C60322-P45/C60322-P45.minimised.mol

>  <scratch_subdir>  (1309) 
/opt/xchem-fragalysis-2/maxwin/BulkDock/SCRATCH/511020/C60322-P45

>  <fragmenstein_runtime>  (1309) 
2.5919463634490967

>  <fragmenstein_outcome>  (1309) 
too moved

>  <fragmenstein_mode>  (1309) 
expansion

>  <fragmenstein_error>  (1309) 


$$$$
C41402-P52
     RDKit          3D

 40 44  0  0  0  0  0  0  0  0999 V2000
   -9.4105  -23.2954   34.2006 C   0  0  0  0  0  0  0  0  0  0  0  0
  -10.5630  -23.4491   34.9206 C   0  0  0  0  0  0  0  0  0  0  0  0
  -11.7568  -22.8054   34.6098 C   0  0  0  0  0  0  0  0  0  0  0  0
  -11.7062  -21.9859   33.5210 C   0  0  0  0  0  0  0  0  0  0  0  0
  -12.6783  -21.4625   32.6940 N   0  0  0  0  0  0  0  0  0  0  0  0
  -11.9249  -21.1391   31.5912 C   0  0  0  0  0  0  0  0  0  0  0  0
  -11.7302  -22.0071   30.3331 C   0  0  0  0  0  0  0  0  0  0  0  0
  -11.4382  -21.0583   29.1683 C   0  0  0  0  0  0  0  0  0  0  0  0
  -12.4405  -21.7558   28.3868 N   0  0  0  0  0  0  0  0  0  0  0  0
  -11.8719  -22.3093   27.1781 C   0  0  0  0  0  0  0  0  0  0  0  0
  -11.1818  -23.6223   27.2503 C   0  0  0  0  0  0  0  0  0  0  0  0
  -11.6227  -24.5981   26.4461 C   0  0  0  0  0  0  0  0  0  0  0  0
  -11.0087  -25.8729   26.4204 C   0  0  0  0  0  0  0  0  0  0  0  0
  -10.0352  -26.1582   27.2903 C   0  0  0  0  0  0  0  0  0  0  0  0
   -9.6699  -25.1981   28.2155 N   0  0  0  0  0  0  0  0  0  0  0  0
   -8.7385  -25.1637   29.1963 C   0  0  0  0  0  0  0  0  0  0  0  0
   -8.8806  -23.9944   29.8582 C   0  0  0  0  0  0  0  0  0  0  0  0
   -9.5669  -23.1633   29.0564 N   0  0  0  0  0  0  0  0  0  0  0  0
  -10.1545  -23.9214   28.1706 C   0  0  0  0  0  0  0  0  0  0  0  0
  -12.8070  -22.6274   29.5061 C   0  0  0  0  0  0  0  0  0  0  0  0
  -10.7699  -20.6706   32.0168 N   0  0  0  0  0  0  0  0  0  0  0  0
  -10.5105  -21.6379   32.9182 C   0  0  0  0  0  0  0  0  0  0  0  0
   -9.3540  -22.3450   33.2208 C   0  0  0  0  0  0  0  0  0  0  0  0
   -8.5108  -23.7967   34.4842 H   0  0  0  0  0  0  0  0  0  0  0  0
  -10.5108  -24.0941   35.7685 H   0  0  0  0  0  0  0  0  0  0  0  0
  -12.6761  -22.9794   35.1444 H   0  0  0  0  0  0  0  0  0  0  0  0
  -13.6294  -21.8098   32.6920 H   0  0  0  0  0  0  0  0  0  0  0  0
  -11.0167  -22.7842   30.5885 H   0  0  0  0  0  0  0  0  0  0  0  0
  -11.7334  -20.0221   29.3578 H   0  0  0  0  0  0  0  0  0  0  0  0
  -10.4161  -21.0194   28.7890 H   0  0  0  0  0  0  0  0  0  0  0  0
  -11.2057  -21.5660   26.7490 H   0  0  0  0  0  0  0  0  0  0  0  0
  -12.6646  -22.3778   26.4285 H   0  0  0  0  0  0  0  0  0  0  0  0
  -12.4568  -24.4328   25.7696 H   0  0  0  0  0  0  0  0  0  0  0  0
  -11.3810  -26.4714   25.6066 H   0  0  0  0  0  0  0  0  0  0  0  0
   -9.4470  -27.0502   27.2087 H   0  0  0  0  0  0  0  0  0  0  0  0
   -7.9578  -25.8635   29.2947 H   0  0  0  0  0  0  0  0  0  0  0  0
   -8.3884  -23.6672   30.7592 H   0  0  0  0  0  0  0  0  0  0  0  0
  -12.7355  -23.7075   29.3484 H   0  0  0  0  0  0  0  0  0  0  0  0
  -13.7726  -22.4403   29.9639 H   0  0  0  0  0  0  0  0  0  0  0  0
   -8.4027  -22.2036   32.7464 H   0  0  0  0  0  0  0  0  0  0  0  0
  1  2  2  0
  2  3  1  0
  3  4  2  0
  4  5  1  0
  5  6  1  0
  6  7  1  0
  7  8  1  0
  8  9  1  0
  9 10  1  0
 10 11  1  0
 11 12  2  0
 12 13  1  0
 13 14  2  0
 14 15  1  0
 15 16  1  0
 16 17  2  0
 17 18  1  0
 18 19  2  0
  9 20  1  0
  6 21  2  0
 21 22  1  0
 22 23  2  0
 23  1  1  0
 22  4  1  0
 20  7  1  0
 19 11  1  0
 19 15  1  0
  1 24  1  0
  2 25  1  0
  3 26  1  0
  5 27  1  0
  7 28  1  0
  8 29  1  0
  8 30  1  0
 10 31  1  0
 10 32  1  0
 12 33  1  0
 13 34  1  0
 14 35  1  0
 16 36  1  0
 17 37  1  0
 20 38  1  0
 20 39  1  0
 23 40  1  0
M  END
>  <Energy>  (1310) 
143.72040002705239

>  <compound_id>  (1310) 
41402

>  <target_id>  (1310) 
1

>  <reference_id>  (1310) 
52

>  <inspiration_ids>  (1310) 
[52, 45]

>  <energy_score>  (1310) 
50.83389968750561

>  <distance_score>  (1310) 
3.303380830742445

>  <path>  (1310) 
/opt/xchem-fragalysis-2/maxwin/BulkDock/SCRATCH/511020/C41402-P52/C41402-P52.minimised.mol

>  <scratch_subdir>  (1310) 
/opt/xchem-fragalysis-2/maxwin/BulkDock/SCRATCH/511020/C41402-P52

>  <fragmenstein_runtime>  (1310) 
3.942965507507324

>  <fragmenstein_outcome>  (1310) 
too moved

>  <fragmenstein_mode>  (1310) 
expansion

>  <fragmenstein_error>  (1310) 


$$$$
C41402-P45
     RDKit          3D

 40 44  0  0  0  0  0  0  0  0999 V2000
  -11.6166  -23.3551   34.2407 C   0  0  0  0  0  0  0  0  0  0  0  0
  -12.0788  -22.0729   33.9876 C   0  0  0  0  0  0  0  0  0  0  0  0
  -11.9838  -21.5230   32.7260 C   0  0  0  0  0  0  0  0  0  0  0  0
  -11.6037  -22.3723   31.7127 C   0  0  0  0  0  0  0  0  0  0  0  0
  -11.7531  -22.3870   30.3386 N   0  0  0  0  0  0  0  0  0  0  0  0
  -11.3624  -23.6317   29.9334 C   0  0  0  0  0  0  0  0  0  0  0  0
  -11.2566  -24.4330   28.6463 C   0  0  0  0  0  0  0  0  0  0  0  0
   -9.7738  -24.3137   28.2354 C   0  0  0  0  0  0  0  0  0  0  0  0
  -10.1471  -24.7185   26.8664 N   0  0  0  0  0  0  0  0  0  0  0  0
   -9.9906  -26.1838   26.8270 C   0  0  0  0  0  0  0  0  0  0  0  0
   -8.5143  -26.6606   26.8339 C   0  0  0  0  0  0  0  0  0  0  0  0
   -8.2843  -27.9828   26.6225 C   0  0  0  0  0  0  0  0  0  0  0  0
   -6.9535  -28.5450   26.4841 C   0  0  0  0  0  0  0  0  0  0  0  0
   -5.8825  -27.7534   26.6332 C   0  0  0  0  0  0  0  0  0  0  0  0
   -6.0827  -26.4100   26.8971 N   0  0  0  0  0  0  0  0  0  0  0  0
   -5.1495  -25.4307   27.1277 C   0  0  0  0  0  0  0  0  0  0  0  0
   -5.8669  -24.2934   27.3940 C   0  0  0  0  0  0  0  0  0  0  0  0
   -7.2041  -24.5326   27.2841 N   0  0  0  0  0  0  0  0  0  0  0  0
   -7.3393  -25.8177   27.0027 C   0  0  0  0  0  0  0  0  0  0  0  0
  -11.5137  -24.1665   27.1811 C   0  0  0  0  0  0  0  0  0  0  0  0
  -10.8113  -24.3014   30.9160 N   0  0  0  0  0  0  0  0  0  0  0  0
  -11.0194  -23.5894   32.0220 C   0  0  0  0  0  0  0  0  0  0  0  0
  -10.8954  -24.0682   33.3079 C   0  0  0  0  0  0  0  0  0  0  0  0
  -11.7781  -23.7992   35.2075 H   0  0  0  0  0  0  0  0  0  0  0  0
  -12.5328  -21.4789   34.7716 H   0  0  0  0  0  0  0  0  0  0  0  0
  -12.3418  -20.5393   32.5768 H   0  0  0  0  0  0  0  0  0  0  0  0
  -12.1810  -21.6807   29.7590 H   0  0  0  0  0  0  0  0  0  0  0  0
  -11.5882  -25.4573   28.8778 H   0  0  0  0  0  0  0  0  0  0  0  0
   -9.3609  -23.2996   28.2564 H   0  0  0  0  0  0  0  0  0  0  0  0
   -9.1148  -24.9586   28.8283 H   0  0  0  0  0  0  0  0  0  0  0  0
  -10.4868  -26.5399   25.9171 H   0  0  0  0  0  0  0  0  0  0  0  0
  -10.4983  -26.6995   27.6522 H   0  0  0  0  0  0  0  0  0  0  0  0
   -9.1086  -28.6762   26.4702 H   0  0  0  0  0  0  0  0  0  0  0  0
   -6.8713  -29.5909   26.2170 H   0  0  0  0  0  0  0  0  0  0  0  0
   -4.8593  -28.0876   26.5263 H   0  0  0  0  0  0  0  0  0  0  0  0
   -4.0899  -25.6426   27.1003 H   0  0  0  0  0  0  0  0  0  0  0  0
   -5.4934  -23.3144   27.6588 H   0  0  0  0  0  0  0  0  0  0  0  0
  -12.3317  -24.7251   26.7214 H   0  0  0  0  0  0  0  0  0  0  0  0
  -11.6278  -23.1072   26.9238 H   0  0  0  0  0  0  0  0  0  0  0  0
  -10.5156  -25.0612   33.5157 H   0  0  0  0  0  0  0  0  0  0  0  0
  1  2  2  0
  2  3  1  0
  3  4  2  0
  4  5  1  0
  5  6  1  0
  6  7  1  0
  7  8  1  0
  8  9  1  0
  9 10  1  0
 10 11  1  0
 11 12  2  0
 12 13  1  0
 13 14  2  0
 14 15  1  0
 15 16  1  0
 16 17  2  0
 17 18  1  0
 18 19  2  0
  9 20  1  0
  6 21  2  0
 21 22  1  0
 22 23  2  0
 23  1  1  0
 22  4  1  0
 20  7  1  0
 19 11  1  0
 19 15  1  0
  1 24  1  0
  2 25  1  0
  3 26  1  0
  5 27  1  0
  7 28  1  0
  8 29  1  0
  8 30  1  0
 10 31  1  0
 10 32  1  0
 12 33  1  0
 13 34  1  0
 14 35  1  0
 16 36  1  0
 17 37  1  0
 20 38  1  0
 20 39  1  0
 23 40  1  0
M  END
>  <Energy>  (1311) 
105.9282047410976

>  <compound_id>  (1311) 
41402

>  <target_id>  (1311) 
1

>  <reference_id>  (1311) 
45

>  <inspiration_ids>  (1311) 
[52, 45]

>  <energy_score>  (1311) 
13.041704401555023

>  <distance_score>  (1311) 
1.6733774375285448

>  <path>  (1311) 
/opt/xchem-fragalysis-2/maxwin/BulkDock/SCRATCH/511020/C41402-P45/C41402-P45.minimised.mol

>  <scratch_subdir>  (1311) 
/opt/xchem-fragalysis-2/maxwin/BulkDock/SCRATCH/511020/C41402-P45

>  <fragmenstein_runtime>  (1311) 
3.67018461227417

>  <fragmenstein_outcome>  (1311) 
too moved

>  <fragmenstein_mode>  (1311) 
expansion

>  <fragmenstein_error>  (1311) 


$$$$
C60323-P52
     RDKit          3D

 34 37  0  0  0  0  0  0  0  0999 V2000
  -11.4087  -21.4827   30.5717 C   0  0  0  0  0  0  0  0  0  0  0  0
  -11.0625  -22.8752   30.4121 N   0  0  0  0  0  0  0  0  0  0  0  0
  -10.9432  -23.7653   31.4391 C   0  0  0  0  0  0  0  0  0  0  0  0
  -10.9441  -25.0038   31.0036 N   0  0  0  0  0  0  0  0  0  0  0  0
  -11.0087  -24.9074   29.6317 C   0  0  0  0  0  0  0  0  0  0  0  0
  -11.1751  -25.8957   28.6505 C   0  0  0  0  0  0  0  0  0  0  0  0
  -11.6047  -27.2632   29.0065 C   0  0  0  0  0  0  0  0  0  0  0  0
  -11.3473  -28.2660   28.3603 O   0  0  0  0  0  0  0  0  0  0  0  0
  -12.4057  -27.2127   30.1045 O   0  0  0  0  0  0  0  0  0  0  0  0
  -13.2813  -28.3304   30.3006 C   0  0  0  0  0  0  0  0  0  0  0  0
  -14.2347  -28.4931   29.1613 C   0  0  0  0  0  0  0  0  0  0  0  0
  -14.6873  -29.6696   28.6795 C   0  0  0  0  0  0  0  0  0  0  0  0
  -15.6245  -29.5051   27.1884 S   0  0  0  0  0  0  0  0  0  0  0  0
  -15.3023  -27.8008   27.2195 C   0  0  0  0  0  0  0  0  0  0  0  0
  -15.4718  -26.8303   26.3670 N   0  0  0  0  0  0  0  0  0  0  0  0
  -14.9015  -25.7540   27.0040 C   0  0  0  0  0  0  0  0  0  0  0  0
  -14.4375  -26.0939   28.2628 C   0  0  0  0  0  0  0  0  0  0  0  0
  -14.6173  -27.4429   28.3401 N   0  0  0  0  0  0  0  0  0  0  0  0
  -11.1458  -25.5195   27.2973 C   0  0  0  0  0  0  0  0  0  0  0  0
  -11.0135  -24.1811   26.9301 C   0  0  0  0  0  0  0  0  0  0  0  0
  -10.9479  -23.1743   27.8937 C   0  0  0  0  0  0  0  0  0  0  0  0
  -10.9670  -23.5711   29.2331 C   0  0  0  0  0  0  0  0  0  0  0  0
  -10.9702  -21.1063   31.4996 H   0  0  0  0  0  0  0  0  0  0  0  0
  -12.4983  -21.4121   30.6199 H   0  0  0  0  0  0  0  0  0  0  0  0
  -11.0330  -20.9069   29.7232 H   0  0  0  0  0  0  0  0  0  0  0  0
  -10.9229  -23.4621   32.4790 H   0  0  0  0  0  0  0  0  0  0  0  0
  -12.6833  -29.2323   30.4768 H   0  0  0  0  0  0  0  0  0  0  0  0
  -13.8480  -28.1281   31.2157 H   0  0  0  0  0  0  0  0  0  0  0  0
  -14.4732  -30.6463   29.0947 H   0  0  0  0  0  0  0  0  0  0  0  0
  -14.8797  -24.7804   26.5306 H   0  0  0  0  0  0  0  0  0  0  0  0
  -13.9694  -25.5056   29.0341 H   0  0  0  0  0  0  0  0  0  0  0  0
  -11.3169  -26.2556   26.5187 H   0  0  0  0  0  0  0  0  0  0  0  0
  -11.0218  -23.9081   25.8761 H   0  0  0  0  0  0  0  0  0  0  0  0
  -10.9244  -22.1278   27.6051 H   0  0  0  0  0  0  0  0  0  0  0  0
  1  2  1  0
  2  3  1  0
  3  4  2  0
  4  5  1  0
  5  6  2  0
  6  7  1  0
  7  8  2  0
  7  9  1  0
  9 10  1  0
 10 11  1  0
 11 12  2  0
 12 13  1  0
 13 14  1  0
 14 15  2  0
 15 16  1  0
 16 17  2  0
 17 18  1  0
  6 19  1  0
 19 20  2  0
 20 21  1  0
 21 22  2  0
 22  2  1  0
 22  5  1  0
 18 11  1  0
 18 14  1  0
  1 23  1  0
  1 24  1  0
  1 25  1  0
  3 26  1  0
 10 27  1  0
 10 28  1  0
 12 29  1  0
 16 30  1  0
 17 31  1  0
 19 32  1  0
 20 33  1  0
 21 34  1  0
M  END
>  <Energy>  (1312) 
56.49090950751539

>  <compound_id>  (1312) 
60323

>  <target_id>  (1312) 
1

>  <reference_id>  (1312) 
52

>  <inspiration_ids>  (1312) 
[52, 45]

>  <energy_score>  (1312) 
-27.241724234079584

>  <distance_score>  (1312) 
6.1228713910544865

>  <path>  (1312) 
/opt/xchem-fragalysis-2/maxwin/BulkDock/SCRATCH/511020/C60323-P52/C60323-P52.minimised.mol

>  <scratch_subdir>  (1312) 
/opt/xchem-fragalysis-2/maxwin/BulkDock/SCRATCH/511020/C60323-P52

>  <fragmenstein_runtime>  (1312) 
7.312375068664551

>  <fragmenstein_outcome>  (1312) 
too moved

>  <fragmenstein_mode>  (1312) 
expansion

>  <fragmenstein_error>  (1312) 


$$$$
C60323-P45
     RDKit          3D

 34 37  0  0  0  0  0  0  0  0999 V2000
   -4.9122  -24.5817   27.5308 C   0  0  0  0  0  0  0  0  0  0  0  0
   -6.2837  -24.9097   27.3133 N   0  0  0  0  0  0  0  0  0  0  0  0
   -7.3192  -24.0831   27.5810 C   0  0  0  0  0  0  0  0  0  0  0  0
   -8.4420  -24.7491   27.5561 N   0  0  0  0  0  0  0  0  0  0  0  0
   -8.1209  -26.0572   27.2437 C   0  0  0  0  0  0  0  0  0  0  0  0
   -8.8989  -27.2250   27.2034 C   0  0  0  0  0  0  0  0  0  0  0  0
  -10.3000  -27.2517   27.6714 C   0  0  0  0  0  0  0  0  0  0  0  0
  -10.9753  -28.2699   27.7162 O   0  0  0  0  0  0  0  0  0  0  0  0
  -10.7822  -26.0404   28.0250 O   0  0  0  0  0  0  0  0  0  0  0  0
  -10.4930  -25.6306   29.3800 C   0  0  0  0  0  0  0  0  0  0  0  0
  -11.0132  -24.2372   29.5821 C   0  0  0  0  0  0  0  0  0  0  0  0
  -11.4234  -23.4342   28.5802 C   0  0  0  0  0  0  0  0  0  0  0  0
  -11.9428  -21.8662   29.1276 S   0  0  0  0  0  0  0  0  0  0  0  0
  -11.6923  -22.3309   30.7498 C   0  0  0  0  0  0  0  0  0  0  0  0
  -11.9013  -21.7693   31.9020 N   0  0  0  0  0  0  0  0  0  0  0  0
  -11.4096  -22.6971   32.7914 C   0  0  0  0  0  0  0  0  0  0  0  0
  -10.8283  -23.7709   32.1371 C   0  0  0  0  0  0  0  0  0  0  0  0
  -11.1353  -23.5707   30.8136 N   0  0  0  0  0  0  0  0  0  0  0  0
   -8.2842  -28.4130   26.7683 C   0  0  0  0  0  0  0  0  0  0  0  0
   -6.9217  -28.4549   26.4784 C   0  0  0  0  0  0  0  0  0  0  0  0
   -6.1084  -27.3431   26.6671 C   0  0  0  0  0  0  0  0  0  0  0  0
   -6.7549  -26.1581   27.0196 C   0  0  0  0  0  0  0  0  0  0  0  0
   -4.8277  -23.5014   27.4973 H   0  0  0  0  0  0  0  0  0  0  0  0
   -4.3131  -25.0987   26.7842 H   0  0  0  0  0  0  0  0  0  0  0  0
   -4.6271  -24.9078   28.5212 H   0  0  0  0  0  0  0  0  0  0  0  0
   -7.2063  -23.0331   27.8188 H   0  0  0  0  0  0  0  0  0  0  0  0
  -10.9646  -26.3698   30.0228 H   0  0  0  0  0  0  0  0  0  0  0  0
   -9.4223  -25.6598   29.5987 H   0  0  0  0  0  0  0  0  0  0  0  0
  -11.4247  -23.6846   27.5264 H   0  0  0  0  0  0  0  0  0  0  0  0
  -11.5186  -22.5584   33.8596 H   0  0  0  0  0  0  0  0  0  0  0  0
  -10.3297  -24.6558   32.5087 H   0  0  0  0  0  0  0  0  0  0  0  0
   -8.8742  -29.3231   26.6610 H   0  0  0  0  0  0  0  0  0  0  0  0
   -6.5008  -29.3808   26.0965 H   0  0  0  0  0  0  0  0  0  0  0  0
   -5.0396  -27.3925   26.4791 H   0  0  0  0  0  0  0  0  0  0  0  0
  1  2  1  0
  2  3  1  0
  3  4  2  0
  4  5  1  0
  5  6  2  0
  6  7  1  0
  7  8  2  0
  7  9  1  0
  9 10  1  0
 10 11  1  0
 11 12  2  0
 12 13  1  0
 13 14  1  0
 14 15  2  0
 15 16  1  0
 16 17  2  0
 17 18  1  0
  6 19  1  0
 19 20  2  0
 20 21  1  0
 21 22  2  0
 22  2  1  0
 22  5  1  0
 18 11  1  0
 18 14  1  0
  1 23  1  0
  1 24  1  0
  1 25  1  0
  3 26  1  0
 10 27  1  0
 10 28  1  0
 12 29  1  0
 16 30  1  0
 17 31  1  0
 19 32  1  0
 20 33  1  0
 21 34  1  0
M  END
>  <Energy>  (1313) 
63.523687393146325

>  <compound_id>  (1313) 
60323

>  <target_id>  (1313) 
1

>  <reference_id>  (1313) 
45

>  <inspiration_ids>  (1313) 
[52, 45]

>  <energy_score>  (1313) 
-21.058273379194247

>  <distance_score>  (1313) 
2.1398543298799595

>  <path>  (1313) 
/opt/xchem-fragalysis-2/maxwin/BulkDock/SCRATCH/511020/C60323-P45/C60323-P45.minimised.mol

>  <scratch_subdir>  (1313) 
/opt/xchem-fragalysis-2/maxwin/BulkDock/SCRATCH/511020/C60323-P45

>  <fragmenstein_runtime>  (1313) 
4.489836692810059

>  <fragmenstein_outcome>  (1313) 
too moved

>  <fragmenstein_mode>  (1313) 
expansion

>  <fragmenstein_error>  (1313) 


$$$$
C60324-P52
     RDKit          3D

 37 40  0  0  0  0  0  0  0  0999 V2000
  -11.3516  -20.4777   31.2509 C   0  0  0  0  0  0  0  0  0  0  0  0
  -11.5203  -21.8827   31.2293 N   0  0  0  0  0  0  0  0  0  0  0  0
  -12.3119  -22.5308   30.3503 C   0  0  0  0  0  0  0  0  0  0  0  0
  -12.2374  -23.8173   30.5316 N   0  0  0  0  0  0  0  0  0  0  0  0
  -11.3371  -23.9977   31.5545 C   0  0  0  0  0  0  0  0  0  0  0  0
  -10.8228  -25.1812   32.1074 C   0  0  0  0  0  0  0  0  0  0  0  0
  -11.4021  -26.4931   31.7129 C   0  0  0  0  0  0  0  0  0  0  0  0
  -11.3199  -27.5023   32.3972 O   0  0  0  0  0  0  0  0  0  0  0  0
  -12.0967  -26.3893   30.5677 O   0  0  0  0  0  0  0  0  0  0  0  0
  -11.8207  -27.2756   29.4845 C   0  0  0  0  0  0  0  0  0  0  0  0
  -11.2767  -26.4585   28.3399 C   0  0  0  0  0  0  0  0  0  0  0  0
  -11.9334  -26.5102   27.1724 C   0  0  0  0  0  0  0  0  0  0  0  0
  -11.7056  -25.4997   26.1791 C   0  0  0  0  0  0  0  0  0  0  0  0
  -10.9811  -24.4036   26.4370 C   0  0  0  0  0  0  0  0  0  0  0  0
  -10.3081  -24.3038   27.6743 C   0  0  0  0  0  0  0  0  0  0  0  0
   -9.6365  -23.3111   28.2148 N   0  0  0  0  0  0  0  0  0  0  0  0
   -9.1222  -23.8444   29.3503 C   0  0  0  0  0  0  0  0  0  0  0  0
   -9.4319  -25.1583   29.4730 C   0  0  0  0  0  0  0  0  0  0  0  0
  -10.3537  -25.4127   28.5097 N   0  0  0  0  0  0  0  0  0  0  0  0
   -9.9031  -25.0855   33.1624 C   0  0  0  0  0  0  0  0  0  0  0  0
   -9.5178  -23.8370   33.6428 C   0  0  0  0  0  0  0  0  0  0  0  0
   -9.9931  -22.6587   33.0802 C   0  0  0  0  0  0  0  0  0  0  0  0
  -10.8951  -22.7815   32.0344 C   0  0  0  0  0  0  0  0  0  0  0  0
  -11.5273  -20.0836   30.2493 H   0  0  0  0  0  0  0  0  0  0  0  0
  -10.3513  -20.2077   31.5775 H   0  0  0  0  0  0  0  0  0  0  0  0
  -12.0524  -20.0945   31.9930 H   0  0  0  0  0  0  0  0  0  0  0  0
  -12.8893  -22.0425   29.5868 H   0  0  0  0  0  0  0  0  0  0  0  0
  -12.7914  -27.7114   29.2160 H   0  0  0  0  0  0  0  0  0  0  0  0
  -11.2012  -28.1304   29.7236 H   0  0  0  0  0  0  0  0  0  0  0  0
  -12.7446  -27.2081   26.9859 H   0  0  0  0  0  0  0  0  0  0  0  0
  -12.2814  -25.5933   25.2747 H   0  0  0  0  0  0  0  0  0  0  0  0
  -10.9015  -23.5852   25.7321 H   0  0  0  0  0  0  0  0  0  0  0  0
   -8.5191  -23.3205   30.0579 H   0  0  0  0  0  0  0  0  0  0  0  0
   -9.1750  -25.8232   30.2674 H   0  0  0  0  0  0  0  0  0  0  0  0
   -9.5074  -25.9872   33.6198 H   0  0  0  0  0  0  0  0  0  0  0  0
   -8.8221  -23.7581   34.4700 H   0  0  0  0  0  0  0  0  0  0  0  0
   -9.6664  -21.6934   33.4440 H   0  0  0  0  0  0  0  0  0  0  0  0
  1  2  1  0
  2  3  1  0
  3  4  2  0
  4  5  1  0
  5  6  2  0
  6  7  1  0
  7  8  2  0
  7  9  1  0
  9 10  1  0
 10 11  1  0
 11 12  2  0
 12 13  1  0
 13 14  2  0
 14 15  1  0
 15 16  2  0
 16 17  1  0
 17 18  2  0
 18 19  1  0
  6 20  1  0
 20 21  2  0
 21 22  1  0
 22 23  2  0
 23  2  1  0
 23  5  1  0
 19 11  1  0
 19 15  1  0
  1 24  1  0
  1 25  1  0
  1 26  1  0
  3 27  1  0
 10 28  1  0
 10 29  1  0
 12 30  1  0
 13 31  1  0
 14 32  1  0
 17 33  1  0
 18 34  1  0
 20 35  1  0
 21 36  1  0
 22 37  1  0
M  END
>  <Energy>  (1314) 
79.848148448563947

>  <compound_id>  (1314) 
60324

>  <target_id>  (1314) 
1

>  <reference_id>  (1314) 
52

>  <inspiration_ids>  (1314) 
[52, 45]

>  <energy_score>  (1314) 
-5.066163995837883

>  <distance_score>  (1314) 
3.7685582629561813

>  <path>  (1314) 
/opt/xchem-fragalysis-2/maxwin/BulkDock/SCRATCH/511020/C60324-P52/C60324-P52.minimised.mol

>  <scratch_subdir>  (1314) 
/opt/xchem-fragalysis-2/maxwin/BulkDock/SCRATCH/511020/C60324-P52

>  <fragmenstein_runtime>  (1314) 
5.583511590957642

>  <fragmenstein_outcome>  (1314) 
too moved

>  <fragmenstein_mode>  (1314) 
expansion

>  <fragmenstein_error>  (1314) 


$$$$
C60324-P45
     RDKit          3D

 37 40  0  0  0  0  0  0  0  0999 V2000
  -11.6060  -22.3586   30.7546 C   0  0  0  0  0  0  0  0  0  0  0  0
  -11.2691  -22.9741   32.0138 N   0  0  0  0  0  0  0  0  0  0  0  0
  -11.8130  -22.6595   33.2335 C   0  0  0  0  0  0  0  0  0  0  0  0
  -11.5932  -23.6301   34.1014 N   0  0  0  0  0  0  0  0  0  0  0  0
  -10.8362  -24.5632   33.4306 C   0  0  0  0  0  0  0  0  0  0  0  0
  -10.2861  -25.8317   33.7011 C   0  0  0  0  0  0  0  0  0  0  0  0
  -10.4190  -26.9481   32.5226 C   0  0  0  0  0  0  0  0  0  0  0  0
  -10.7135  -28.1205   32.6837 O   0  0  0  0  0  0  0  0  0  0  0  0
  -10.2827  -26.5059   31.2151 O   0  0  0  0  0  0  0  0  0  0  0  0
  -10.3068  -27.4576   30.1720 C   0  0  0  0  0  0  0  0  0  0  0  0
  -10.8457  -26.9597   28.8598 C   0  0  0  0  0  0  0  0  0  0  0  0
  -12.0105  -27.4510   28.3831 C   0  0  0  0  0  0  0  0  0  0  0  0
  -12.4628  -27.0990   27.0533 C   0  0  0  0  0  0  0  0  0  0  0  0
  -11.7485  -26.2770   26.2679 C   0  0  0  0  0  0  0  0  0  0  0  0
  -10.5081  -25.7646   26.7292 C   0  0  0  0  0  0  0  0  0  0  0  0
   -9.6180  -25.0083   26.1244 N   0  0  0  0  0  0  0  0  0  0  0  0
   -8.5812  -24.8878   27.0031 C   0  0  0  0  0  0  0  0  0  0  0  0
   -8.8740  -25.5280   28.1749 C   0  0  0  0  0  0  0  0  0  0  0  0
  -10.0959  -26.1257   28.0113 N   0  0  0  0  0  0  0  0  0  0  0  0
   -8.9588  -25.5052   33.8265 C   0  0  0  0  0  0  0  0  0  0  0  0
   -8.3884  -25.1321   32.6543 C   0  0  0  0  0  0  0  0  0  0  0  0
   -9.2374  -24.5449   31.7246 C   0  0  0  0  0  0  0  0  0  0  0  0
  -10.3758  -23.9696   32.2672 C   0  0  0  0  0  0  0  0  0  0  0  0
  -12.6806  -22.1639   30.7297 H   0  0  0  0  0  0  0  0  0  0  0  0
  -11.3479  -23.0384   29.9389 H   0  0  0  0  0  0  0  0  0  0  0  0
  -11.0639  -21.4185   30.6646 H   0  0  0  0  0  0  0  0  0  0  0  0
  -12.4291  -21.7883   33.4122 H   0  0  0  0  0  0  0  0  0  0  0  0
  -10.8893  -28.3337   30.4741 H   0  0  0  0  0  0  0  0  0  0  0  0
   -9.2681  -27.7204   30.0180 H   0  0  0  0  0  0  0  0  0  0  0  0
  -12.6266  -28.1392   28.9566 H   0  0  0  0  0  0  0  0  0  0  0  0
  -13.3957  -27.5310   26.7027 H   0  0  0  0  0  0  0  0  0  0  0  0
  -12.0914  -26.0106   25.2769 H   0  0  0  0  0  0  0  0  0  0  0  0
   -7.6865  -24.3310   26.7565 H   0  0  0  0  0  0  0  0  0  0  0  0
   -8.3190  -25.6016   29.0811 H   0  0  0  0  0  0  0  0  0  0  0  0
   -8.3565  -25.8181   34.6535 H   0  0  0  0  0  0  0  0  0  0  0  0
   -7.3499  -25.3302   32.4606 H   0  0  0  0  0  0  0  0  0  0  0  0
   -8.9736  -24.5376   30.6888 H   0  0  0  0  0  0  0  0  0  0  0  0
  1  2  1  0
  2  3  1  0
  3  4  2  0
  4  5  1  0
  5  6  2  0
  6  7  1  0
  7  8  2  0
  7  9  1  0
  9 10  1  0
 10 11  1  0
 11 12  2  0
 12 13  1  0
 13 14  2  0
 14 15  1  0
 15 16  2  0
 16 17  1  0
 17 18  2  0
 18 19  1  0
  6 20  1  0
 20 21  2  0
 21 22  1  0
 22 23  2  0
 23  2  1  0
 23  5  1  0
 19 11  1  0
 19 15  1  0
  1 24  1  0
  1 25  1  0
  1 26  1  0
  3 27  1  0
 10 28  1  0
 10 29  1  0
 12 30  1  0
 13 31  1  0
 14 32  1  0
 17 33  1  0
 18 34  1  0
 20 35  1  0
 21 36  1  0
 22 37  1  0
M  END
>  <Energy>  (1315) 
175.97855207777226

>  <compound_id>  (1315) 
60324

>  <target_id>  (1315) 
1

>  <reference_id>  (1315) 
45

>  <inspiration_ids>  (1315) 
[52, 45]

>  <energy_score>  (1315) 
103.24664592580831

>  <distance_score>  (1315) 
3.306585421805949

>  <path>  (1315) 
/opt/xchem-fragalysis-2/maxwin/BulkDock/SCRATCH/511020/C60324-P45/C60324-P45.minimised.mol

>  <scratch_subdir>  (1315) 
/opt/xchem-fragalysis-2/maxwin/BulkDock/SCRATCH/511020/C60324-P45

>  <fragmenstein_runtime>  (1315) 
5.6829588413238525

>  <fragmenstein_outcome>  (1315) 
too moved

>  <fragmenstein_mode>  (1315) 
expansion

>  <fragmenstein_error>  (1315) 


$$$$
C60325-P52
     RDKit          3D

 43 46  0  0  0  0  0  0  0  0999 V2000
  -13.8628  -17.1917   35.1104 C   0  0  0  0  0  0  0  0  0  0  0  0
  -15.1503  -17.6066   34.5284 N   0  0  0  0  0  0  0  0  0  0  0  0
  -16.2261  -17.0145   35.3450 C   0  0  0  0  0  0  0  0  0  0  0  0
  -15.3434  -19.0764   34.5405 C   0  0  0  0  0  0  0  0  0  0  0  0
  -14.2323  -19.8695   33.9330 C   0  0  0  0  0  0  0  0  0  0  0  0
  -13.1241  -20.2502   34.5335 N   0  0  0  0  0  0  0  0  0  0  0  0
  -12.5183  -21.1342   33.6916 C   0  0  0  0  0  0  0  0  0  0  0  0
  -11.4437  -22.0051   33.9062 C   0  0  0  0  0  0  0  0  0  0  0  0
  -11.0338  -22.8545   32.8755 C   0  0  0  0  0  0  0  0  0  0  0  0
  -11.7007  -22.8132   31.6559 C   0  0  0  0  0  0  0  0  0  0  0  0
  -11.5462  -23.7737   30.6766 N   0  0  0  0  0  0  0  0  0  0  0  0
  -10.8800  -25.0418   30.6998 C   0  0  0  0  0  0  0  0  0  0  0  0
  -10.2187  -25.5609   31.5468 O   0  0  0  0  0  0  0  0  0  0  0  0
  -11.2292  -25.7585   29.4423 C   0  0  0  0  0  0  0  0  0  0  0  0
  -11.8842  -26.9279   29.5978 C   0  0  0  0  0  0  0  0  0  0  0  0
  -12.5158  -27.5470   28.4487 C   0  0  0  0  0  0  0  0  0  0  0  0
  -12.5366  -26.9260   27.2565 C   0  0  0  0  0  0  0  0  0  0  0  0
  -11.8336  -25.7043   27.0791 C   0  0  0  0  0  0  0  0  0  0  0  0
  -11.7543  -24.9047   26.0434 N   0  0  0  0  0  0  0  0  0  0  0  0
  -11.0240  -23.8319   26.4613 C   0  0  0  0  0  0  0  0  0  0  0  0
  -10.6064  -23.9935   27.7587 C   0  0  0  0  0  0  0  0  0  0  0  0
  -11.1614  -25.1815   28.1744 N   0  0  0  0  0  0  0  0  0  0  0  0
  -12.7345  -21.9050   31.3965 C   0  0  0  0  0  0  0  0  0  0  0  0
  -13.1603  -21.1410   32.4686 C   0  0  0  0  0  0  0  0  0  0  0  0
  -14.2934  -20.3972   32.6720 N   0  0  0  0  0  0  0  0  0  0  0  0
  -13.7658  -17.4656   36.1637 H   0  0  0  0  0  0  0  0  0  0  0  0
  -13.0075  -17.5986   34.5650 H   0  0  0  0  0  0  0  0  0  0  0  0
  -13.7640  -16.1017   35.0417 H   0  0  0  0  0  0  0  0  0  0  0  0
  -16.2255  -17.3954   36.3736 H   0  0  0  0  0  0  0  0  0  0  0  0
  -17.2046  -17.2270   34.8999 H   0  0  0  0  0  0  0  0  0  0  0  0
  -16.1254  -15.9249   35.3973 H   0  0  0  0  0  0  0  0  0  0  0  0
  -15.5051  -19.4476   35.5584 H   0  0  0  0  0  0  0  0  0  0  0  0
  -16.2673  -19.3006   33.9904 H   0  0  0  0  0  0  0  0  0  0  0  0
  -11.0249  -22.0837   34.8973 H   0  0  0  0  0  0  0  0  0  0  0  0
  -10.2463  -23.5772   33.0707 H   0  0  0  0  0  0  0  0  0  0  0  0
  -12.0832  -23.6986   29.8245 H   0  0  0  0  0  0  0  0  0  0  0  0
  -12.0411  -27.3814   30.5724 H   0  0  0  0  0  0  0  0  0  0  0  0
  -13.0274  -28.4949   28.5903 H   0  0  0  0  0  0  0  0  0  0  0  0
  -13.0462  -27.3514   26.3990 H   0  0  0  0  0  0  0  0  0  0  0  0
  -10.8397  -23.0080   25.7910 H   0  0  0  0  0  0  0  0  0  0  0  0
  -10.0055  -23.3691   28.4054 H   0  0  0  0  0  0  0  0  0  0  0  0
  -13.3023  -21.9321   30.4789 H   0  0  0  0  0  0  0  0  0  0  0  0
  -15.0888  -20.3493   32.0537 H   0  0  0  0  0  0  0  0  0  0  0  0
  1  2  1  0
  2  3  1  0
  2  4  1  0
  4  5  1  0
  5  6  2  0
  6  7  1  0
  7  8  2  0
  8  9  1  0
  9 10  2  0
 10 11  1  0
 11 12  1  0
 12 13  2  0
 12 14  1  0
 14 15  2  0
 15 16  1  0
 16 17  2  0
 17 18  1  0
 18 19  2  0
 19 20  1  0
 20 21  2  0
 21 22  1  0
 10 23  1  0
 23 24  2  0
 24 25  1  0
 25  5  1  0
 24  7  1  0
 22 14  1  0
 22 18  1  0
  1 26  1  0
  1 27  1  0
  1 28  1  0
  3 29  1  0
  3 30  1  0
  3 31  1  0
  4 32  1  0
  4 33  1  0
  8 34  1  0
  9 35  1  0
 11 36  1  0
 15 37  1  0
 16 38  1  0
 17 39  1  0
 20 40  1  0
 21 41  1  0
 23 42  1  0
 25 43  1  0
M  END
>  <Energy>  (1316) 
43.705981822717362

>  <compound_id>  (1316) 
60325

>  <target_id>  (1316) 
1

>  <reference_id>  (1316) 
52

>  <inspiration_ids>  (1316) 
[52, 45]

>  <energy_score>  (1316) 
-27.539228853017164

>  <distance_score>  (1316) 
4.648290906360618

>  <path>  (1316) 
/opt/xchem-fragalysis-2/maxwin/BulkDock/SCRATCH/511020/C60325-P52/C60325-P52.minimised.mol

>  <scratch_subdir>  (1316) 
/opt/xchem-fragalysis-2/maxwin/BulkDock/SCRATCH/511020/C60325-P52

>  <fragmenstein_runtime>  (1316) 
14.760780096054077

>  <fragmenstein_outcome>  (1316) 
too moved

>  <fragmenstein_mode>  (1316) 
expansion

>  <fragmenstein_error>  (1316) 


$$$$
C60325-P45
     RDKit          3D

 43 46  0  0  0  0  0  0  0  0999 V2000
  -15.5914  -21.7877   32.4883 C   0  0  0  0  0  0  0  0  0  0  0  0
  -14.8813  -20.6962   33.1779 N   0  0  0  0  0  0  0  0  0  0  0  0
  -15.8678  -19.9632   33.9899 C   0  0  0  0  0  0  0  0  0  0  0  0
  -13.8502  -21.2374   34.1141 C   0  0  0  0  0  0  0  0  0  0  0  0
  -12.6254  -21.8591   33.5154 C   0  0  0  0  0  0  0  0  0  0  0  0
  -11.8083  -22.6984   34.1210 N   0  0  0  0  0  0  0  0  0  0  0  0
  -11.1177  -23.3505   33.1309 C   0  0  0  0  0  0  0  0  0  0  0  0
  -10.2966  -24.4930   33.1808 C   0  0  0  0  0  0  0  0  0  0  0  0
   -9.8653  -25.0838   31.9952 C   0  0  0  0  0  0  0  0  0  0  0  0
  -10.3268  -24.5661   30.7874 C   0  0  0  0  0  0  0  0  0  0  0  0
  -10.2395  -25.2796   29.6193 N   0  0  0  0  0  0  0  0  0  0  0  0
  -10.3407  -26.7005   29.3666 C   0  0  0  0  0  0  0  0  0  0  0  0
  -10.4470  -27.6189   30.1176 O   0  0  0  0  0  0  0  0  0  0  0  0
  -10.3338  -26.8625   27.8828 C   0  0  0  0  0  0  0  0  0  0  0  0
  -11.5591  -26.6230   27.3656 C   0  0  0  0  0  0  0  0  0  0  0  0
  -11.6431  -25.7590   26.1970 C   0  0  0  0  0  0  0  0  0  0  0  0
  -10.5763  -25.0366   25.8026 C   0  0  0  0  0  0  0  0  0  0  0  0
   -9.2939  -25.3054   26.3610 C   0  0  0  0  0  0  0  0  0  0  0  0
   -8.1188  -24.7232   26.2578 N   0  0  0  0  0  0  0  0  0  0  0  0
   -7.2288  -25.5662   26.8690 C   0  0  0  0  0  0  0  0  0  0  0  0
   -7.8873  -26.6546   27.3781 C   0  0  0  0  0  0  0  0  0  0  0  0
   -9.2138  -26.3870   27.2122 N   0  0  0  0  0  0  0  0  0  0  0  0
  -11.1083  -23.3906   30.6937 C   0  0  0  0  0  0  0  0  0  0  0  0
  -11.4366  -22.7960   31.9011 C   0  0  0  0  0  0  0  0  0  0  0  0
  -12.2738  -21.7571   32.1985 N   0  0  0  0  0  0  0  0  0  0  0  0
  -15.9705  -22.5498   33.1780 H   0  0  0  0  0  0  0  0  0  0  0  0
  -16.4436  -21.3879   31.9251 H   0  0  0  0  0  0  0  0  0  0  0  0
  -14.9520  -22.2553   31.7377 H   0  0  0  0  0  0  0  0  0  0  0  0
  -15.3929  -19.1200   34.5040 H   0  0  0  0  0  0  0  0  0  0  0  0
  -16.6483  -19.5374   33.3497 H   0  0  0  0  0  0  0  0  0  0  0  0
  -16.3487  -20.6006   34.7413 H   0  0  0  0  0  0  0  0  0  0  0  0
  -13.4892  -20.4198   34.7515 H   0  0  0  0  0  0  0  0  0  0  0  0
  -14.3248  -21.9837   34.7603 H   0  0  0  0  0  0  0  0  0  0  0  0
  -10.1266  -25.0208   34.1101 H   0  0  0  0  0  0  0  0  0  0  0  0
   -9.3086  -26.0178   32.0385 H   0  0  0  0  0  0  0  0  0  0  0  0
  -10.2467  -24.7837   28.7357 H   0  0  0  0  0  0  0  0  0  0  0  0
  -12.4675  -26.7792   27.9441 H   0  0  0  0  0  0  0  0  0  0  0  0
  -12.6116  -25.5978   25.7335 H   0  0  0  0  0  0  0  0  0  0  0  0
  -10.6602  -24.3071   25.0064 H   0  0  0  0  0  0  0  0  0  0  0  0
   -6.1629  -25.3722   26.8587 H   0  0  0  0  0  0  0  0  0  0  0  0
   -7.5550  -27.5667   27.8381 H   0  0  0  0  0  0  0  0  0  0  0  0
  -11.4963  -23.0206   29.7507 H   0  0  0  0  0  0  0  0  0  0  0  0
  -12.8434  -21.3055   31.5167 H   0  0  0  0  0  0  0  0  0  0  0  0
  1  2  1  0
  2  3  1  0
  2  4  1  0
  4  5  1  0
  5  6  2  0
  6  7  1  0
  7  8  2  0
  8  9  1  0
  9 10  2  0
 10 11  1  0
 11 12  1  0
 12 13  2  0
 12 14  1  0
 14 15  2  0
 15 16  1  0
 16 17  2  0
 17 18  1  0
 18 19  2  0
 19 20  1  0
 20 21  2  0
 21 22  1  0
 10 23  1  0
 23 24  2  0
 24 25  1  0
 25  5  1  0
 24  7  1  0
 22 14  1  0
 22 18  1  0
  1 26  1  0
  1 27  1  0
  1 28  1  0
  3 29  1  0
  3 30  1  0
  3 31  1  0
  4 32  1  0
  4 33  1  0
  8 34  1  0
  9 35  1  0
 11 36  1  0
 15 37  1  0
 16 38  1  0
 17 39  1  0
 20 40  1  0
 21 41  1  0
 23 42  1  0
 25 43  1  0
M  END
>  <Energy>  (1317) 
77.415909049596266

>  <compound_id>  (1317) 
60325

>  <target_id>  (1317) 
1

>  <reference_id>  (1317) 
45

>  <inspiration_ids>  (1317) 
[52, 45]

>  <energy_score>  (1317) 
6.170698373863502

>  <distance_score>  (1317) 
3.357068778878923

>  <path>  (1317) 
/opt/xchem-fragalysis-2/maxwin/BulkDock/SCRATCH/511020/C60325-P45/C60325-P45.minimised.mol

>  <scratch_subdir>  (1317) 
/opt/xchem-fragalysis-2/maxwin/BulkDock/SCRATCH/511020/C60325-P45

>  <fragmenstein_runtime>  (1317) 
15.609456062316895

>  <fragmenstein_outcome>  (1317) 
too moved

>  <fragmenstein_mode>  (1317) 
expansion

>  <fragmenstein_error>  (1317) 


$$$$
C60328-P52
     RDKit          3D

 36 39  0  0  0  0  0  0  0  0999 V2000
   -9.6200  -23.6420   34.9760 C   0  0  0  0  0  0  0  0  0  0  0  0
  -10.1515  -23.3505   33.6322 C   0  0  0  0  0  0  0  0  0  0  0  0
  -10.9962  -22.2487   33.4457 C   0  0  0  0  0  0  0  0  0  0  0  0
  -11.7226  -22.1017   32.2695 C   0  0  0  0  0  0  0  0  0  0  0  0
  -11.6558  -23.1529   31.3560 C   0  0  0  0  0  0  0  0  0  0  0  0
  -12.4162  -23.4209   30.2421 N   0  0  0  0  0  0  0  0  0  0  0  0
  -12.1678  -24.6843   29.9681 C   0  0  0  0  0  0  0  0  0  0  0  0
  -12.8239  -25.5188   29.1298 N   0  0  0  0  0  0  0  0  0  0  0  0
  -12.6517  -26.9871   29.0216 C   0  0  0  0  0  0  0  0  0  0  0  0
  -11.4042  -27.4198   28.2452 C   0  0  0  0  0  0  0  0  0  0  0  0
  -10.8086  -28.6695   28.3741 C   0  0  0  0  0  0  0  0  0  0  0  0
   -9.4067  -29.0438   27.6577 C   0  0  0  0  0  0  0  0  0  0  0  0
   -8.7181  -27.9577   27.1163 C   0  0  0  0  0  0  0  0  0  0  0  0
   -9.3483  -26.6190   27.3012 N   0  0  0  0  0  0  0  0  0  0  0  0
   -9.0131  -25.5506   28.2100 C   0  0  0  0  0  0  0  0  0  0  0  0
   -9.9398  -24.5660   27.9362 C   0  0  0  0  0  0  0  0  0  0  0  0
  -10.9587  -25.1449   27.2473 N   0  0  0  0  0  0  0  0  0  0  0  0
  -10.7131  -26.4287   27.4455 C   0  0  0  0  0  0  0  0  0  0  0  0
  -11.0825  -25.1184   30.6557 N   0  0  0  0  0  0  0  0  0  0  0  0
  -10.7660  -24.1887   31.5838 C   0  0  0  0  0  0  0  0  0  0  0  0
   -9.8908  -24.2772   32.6350 C   0  0  0  0  0  0  0  0  0  0  0  0
  -10.2955  -23.2076   35.7108 H   0  0  0  0  0  0  0  0  0  0  0  0
   -9.6271  -24.7194   35.1482 H   0  0  0  0  0  0  0  0  0  0  0  0
   -8.6129  -23.2499   35.0866 H   0  0  0  0  0  0  0  0  0  0  0  0
  -11.1774  -21.5403   34.2505 H   0  0  0  0  0  0  0  0  0  0  0  0
  -12.4372  -21.2992   32.1359 H   0  0  0  0  0  0  0  0  0  0  0  0
  -12.9952  -25.0831   28.2191 H   0  0  0  0  0  0  0  0  0  0  0  0
  -13.5298  -27.3768   28.4937 H   0  0  0  0  0  0  0  0  0  0  0  0
  -12.6526  -27.4331   30.0234 H   0  0  0  0  0  0  0  0  0  0  0  0
  -11.2720  -29.4537   28.9617 H   0  0  0  0  0  0  0  0  0  0  0  0
   -9.0660  -30.0686   27.6330 H   0  0  0  0  0  0  0  0  0  0  0  0
   -7.7216  -28.0251   26.7024 H   0  0  0  0  0  0  0  0  0  0  0  0
   -8.1168  -25.5712   28.8085 H   0  0  0  0  0  0  0  0  0  0  0  0
   -9.9565  -23.5227   28.2305 H   0  0  0  0  0  0  0  0  0  0  0  0
  -10.6427  -26.0154   30.5518 H   0  0  0  0  0  0  0  0  0  0  0  0
   -9.2398  -25.1311   32.7880 H   0  0  0  0  0  0  0  0  0  0  0  0
  1  2  1  0
  2  3  2  0
  3  4  1  0
  4  5  2  0
  5  6  1  0
  6  7  2  0
  7  8  1  0
  8  9  1  0
  9 10  1  0
 10 11  2  0
 11 12  1  0
 12 13  2  0
 13 14  1  0
 14 15  1  0
 15 16  2  0
 16 17  1  0
 17 18  2  0
  7 19  1  0
 19 20  1  0
 20 21  2  0
 21  2  1  0
 20  5  1  0
 18 10  1  0
 18 14  1  0
  1 22  1  0
  1 23  1  0
  1 24  1  0
  3 25  1  0
  4 26  1  0
  8 27  1  0
  9 28  1  0
  9 29  1  0
 11 30  1  0
 12 31  1  0
 13 32  1  0
 15 33  1  0
 16 34  1  0
 19 35  1  0
 21 36  1  0
M  END
>  <Energy>  (1318) 
94.676594545921944

>  <compound_id>  (1318) 
60328

>  <target_id>  (1318) 
1

>  <reference_id>  (1318) 
52

>  <inspiration_ids>  (1318) 
[52, 45]

>  <energy_score>  (1318) 
60.637251062300834

>  <distance_score>  (1318) 
3.0450737859263337

>  <path>  (1318) 
/opt/xchem-fragalysis-2/maxwin/BulkDock/SCRATCH/511020/C60328-P52/C60328-P52.minimised.mol

>  <scratch_subdir>  (1318) 
/opt/xchem-fragalysis-2/maxwin/BulkDock/SCRATCH/511020/C60328-P52

>  <fragmenstein_runtime>  (1318) 
3.204521894454956

>  <fragmenstein_outcome>  (1318) 
too moved

>  <fragmenstein_mode>  (1318) 
expansion

>  <fragmenstein_error>  (1318) 


$$$$
C60328-P45
     RDKit          3D

 36 39  0  0  0  0  0  0  0  0999 V2000
  -10.1062  -25.6676   34.4683 C   0  0  0  0  0  0  0  0  0  0  0  0
  -10.3126  -24.7070   33.3636 C   0  0  0  0  0  0  0  0  0  0  0  0
  -11.1301  -23.5706   33.4933 C   0  0  0  0  0  0  0  0  0  0  0  0
  -11.4501  -22.7688   32.3964 C   0  0  0  0  0  0  0  0  0  0  0  0
  -11.1423  -23.3160   31.1475 C   0  0  0  0  0  0  0  0  0  0  0  0
  -11.5042  -22.9517   29.8658 N   0  0  0  0  0  0  0  0  0  0  0  0
  -10.9293  -23.8422   29.0762 C   0  0  0  0  0  0  0  0  0  0  0  0
  -10.8037  -23.8931   27.7398 N   0  0  0  0  0  0  0  0  0  0  0  0
  -10.5576  -25.1151   26.9605 C   0  0  0  0  0  0  0  0  0  0  0  0
   -9.1765  -25.8154   27.0810 C   0  0  0  0  0  0  0  0  0  0  0  0
   -9.1118  -27.1733   26.9524 C   0  0  0  0  0  0  0  0  0  0  0  0
   -7.8600  -27.9178   26.8134 C   0  0  0  0  0  0  0  0  0  0  0  0
   -6.7008  -27.2448   26.8180 C   0  0  0  0  0  0  0  0  0  0  0  0
   -6.7336  -25.8737   27.0298 N   0  0  0  0  0  0  0  0  0  0  0  0
   -5.6861  -24.9997   27.1731 C   0  0  0  0  0  0  0  0  0  0  0  0
   -6.2576  -23.8047   27.5305 C   0  0  0  0  0  0  0  0  0  0  0  0
   -7.6213  -23.9000   27.5543 N   0  0  0  0  0  0  0  0  0  0  0  0
   -7.9074  -25.1399   27.2198 C   0  0  0  0  0  0  0  0  0  0  0  0
  -10.2482  -24.7661   29.7918 N   0  0  0  0  0  0  0  0  0  0  0  0
  -10.3061  -24.4299   31.0988 C   0  0  0  0  0  0  0  0  0  0  0  0
   -9.7337  -25.0681   32.1660 C   0  0  0  0  0  0  0  0  0  0  0  0
  -10.7763  -25.4748   35.2944 H   0  0  0  0  0  0  0  0  0  0  0  0
  -10.3208  -26.6749   34.1235 H   0  0  0  0  0  0  0  0  0  0  0  0
   -9.0672  -25.5982   34.7962 H   0  0  0  0  0  0  0  0  0  0  0  0
  -11.6055  -23.3434   34.4466 H   0  0  0  0  0  0  0  0  0  0  0  0
  -12.0867  -21.8986   32.4931 H   0  0  0  0  0  0  0  0  0  0  0  0
  -11.3422  -23.1830   27.2450 H   0  0  0  0  0  0  0  0  0  0  0  0
  -10.6684  -24.8412   25.9032 H   0  0  0  0  0  0  0  0  0  0  0  0
  -11.3624  -25.8305   27.1742 H   0  0  0  0  0  0  0  0  0  0  0  0
  -10.0161  -27.7631   26.8133 H   0  0  0  0  0  0  0  0  0  0  0  0
   -7.8971  -28.9905   26.6399 H   0  0  0  0  0  0  0  0  0  0  0  0
   -5.7336  -27.7118   26.6756 H   0  0  0  0  0  0  0  0  0  0  0  0
   -4.6583  -25.3152   27.0582 H   0  0  0  0  0  0  0  0  0  0  0  0
   -5.7592  -22.8770   27.7741 H   0  0  0  0  0  0  0  0  0  0  0  0
   -9.6564  -25.4842   29.4160 H   0  0  0  0  0  0  0  0  0  0  0  0
   -9.1060  -25.9473   32.0638 H   0  0  0  0  0  0  0  0  0  0  0  0
  1  2  1  0
  2  3  2  0
  3  4  1  0
  4  5  2  0
  5  6  1  0
  6  7  2  0
  7  8  1  0
  8  9  1  0
  9 10  1  0
 10 11  2  0
 11 12  1  0
 12 13  2  0
 13 14  1  0
 14 15  1  0
 15 16  2  0
 16 17  1  0
 17 18  2  0
  7 19  1  0
 19 20  1  0
 20 21  2  0
 21  2  1  0
 20  5  1  0
 18 10  1  0
 18 14  1  0
  1 22  1  0
  1 23  1  0
  1 24  1  0
  3 25  1  0
  4 26  1  0
  8 27  1  0
  9 28  1  0
  9 29  1  0
 11 30  1  0
 12 31  1  0
 13 32  1  0
 15 33  1  0
 16 34  1  0
 19 35  1  0
 21 36  1  0
M  END
>  <Energy>  (1319) 
25.373490654950956

>  <compound_id>  (1319) 
60328

>  <target_id>  (1319) 
1

>  <reference_id>  (1319) 
45

>  <inspiration_ids>  (1319) 
[52, 45]

>  <energy_score>  (1319) 
-8.665852828673849

>  <distance_score>  (1319) 
2.0646686264855414

>  <path>  (1319) 
/opt/xchem-fragalysis-2/maxwin/BulkDock/SCRATCH/511020/C60328-P45/C60328-P45.minimised.mol

>  <scratch_subdir>  (1319) 
/opt/xchem-fragalysis-2/maxwin/BulkDock/SCRATCH/511020/C60328-P45

>  <fragmenstein_runtime>  (1319) 
4.054476022720337

>  <fragmenstein_outcome>  (1319) 
too moved

>  <fragmenstein_mode>  (1319) 
expansion

>  <fragmenstein_error>  (1319) 


$$$$
C60317-P52
     RDKit          3D

 28 31  0  0  0  0  0  0  0  0999 V2000
   -8.9438  -32.2622   25.7043 C   0  0  0  0  0  0  0  0  0  0  0  0
   -8.7413  -30.8817   26.2291 C   0  0  0  0  0  0  0  0  0  0  0  0
   -7.8409  -30.0606   25.5648 C   0  0  0  0  0  0  0  0  0  0  0  0
   -7.5757  -28.7954   26.0803 C   0  0  0  0  0  0  0  0  0  0  0  0
   -6.4194  -28.2280   25.7426 F   0  0  0  0  0  0  0  0  0  0  0  0
   -8.4910  -28.2232   26.9591 C   0  0  0  0  0  0  0  0  0  0  0  0
   -8.9605  -26.8734   27.1558 N   0  0  0  0  0  0  0  0  0  0  0  0
  -10.2882  -26.8086   27.7314 C   0  0  0  0  0  0  0  0  0  0  0  0
  -10.7277  -25.5974   28.4034 C   0  0  0  0  0  0  0  0  0  0  0  0
  -10.8289  -25.5026   29.7520 C   0  0  0  0  0  0  0  0  0  0  0  0
  -11.1500  -24.2301   30.1939 N   0  0  0  0  0  0  0  0  0  0  0  0
  -11.2753  -23.5828   31.3865 C   0  0  0  0  0  0  0  0  0  0  0  0
  -11.6650  -22.3023   31.0366 C   0  0  0  0  0  0  0  0  0  0  0  0
  -11.7158  -22.1421   29.6608 N   0  0  0  0  0  0  0  0  0  0  0  0
  -11.3702  -23.3179   29.2121 C   0  0  0  0  0  0  0  0  0  0  0  0
  -11.0865  -24.0319   27.6353 S   0  0  0  0  0  0  0  0  0  0  0  0
  -10.5893  -28.1189   28.0128 N   0  0  0  0  0  0  0  0  0  0  0  0
   -9.4364  -29.0273   27.5977 C   0  0  0  0  0  0  0  0  0  0  0  0
   -9.5146  -30.3914   27.3056 C   0  0  0  0  0  0  0  0  0  0  0  0
   -8.0631  -32.8842   25.8765 H   0  0  0  0  0  0  0  0  0  0  0  0
   -9.7974  -32.7524   26.1850 H   0  0  0  0  0  0  0  0  0  0  0  0
   -9.1448  -32.2470   24.6275 H   0  0  0  0  0  0  0  0  0  0  0  0
   -7.2001  -30.4528   24.7776 H   0  0  0  0  0  0  0  0  0  0  0  0
   -8.2924  -26.2454   27.5424 H   0  0  0  0  0  0  0  0  0  0  0  0
  -10.6546  -26.2727   30.4797 H   0  0  0  0  0  0  0  0  0  0  0  0
  -11.0912  -24.0470   32.3421 H   0  0  0  0  0  0  0  0  0  0  0  0
  -11.8975  -21.4820   31.7054 H   0  0  0  0  0  0  0  0  0  0  0  0
  -10.3521  -30.9684   27.6772 H   0  0  0  0  0  0  0  0  0  0  0  0
  1  2  1  0
  2  3  2  0
  3  4  1  0
  4  5  1  0
  4  6  2  0
  6  7  1  0
  7  8  1  0
  8  9  1  0
  9 10  2  0
 10 11  1  0
 11 12  1  0
 12 13  2  0
 13 14  1  0
 14 15  2  0
 15 16  1  0
  8 17  2  0
 17 18  1  0
 18 19  2  0
 19  2  1  0
 18  6  1  0
 16  9  1  0
 15 11  1  0
  1 20  1  0
  1 21  1  0
  1 22  1  0
  3 23  1  0
  7 24  1  0
 10 25  1  0
 12 26  1  0
 13 27  1  0
 19 28  1  0
M  END
>  <Energy>  (1320) 
73.244187742160022

>  <compound_id>  (1320) 
60317

>  <target_id>  (1320) 
1

>  <reference_id>  (1320) 
52

>  <inspiration_ids>  (1320) 
[52, 45]

>  <energy_score>  (1320) 
24.218111496662004

>  <distance_score>  (1320) 
3.2022193793036173

>  <path>  (1320) 
/opt/xchem-fragalysis-2/maxwin/BulkDock/SCRATCH/511020/C60317-P52/C60317-P52.minimised.mol

>  <scratch_subdir>  (1320) 
/opt/xchem-fragalysis-2/maxwin/BulkDock/SCRATCH/511020/C60317-P52

>  <fragmenstein_runtime>  (1320) 
4.0745179653167725

>  <fragmenstein_outcome>  (1320) 
too moved

>  <fragmenstein_mode>  (1320) 
expansion

>  <fragmenstein_error>  (1320) 


$$$$
C60317-P45
     RDKit          3D

 28 31  0  0  0  0  0  0  0  0999 V2000
   -7.8877  -29.7997   25.5123 C   0  0  0  0  0  0  0  0  0  0  0  0
   -7.8114  -28.5316   26.2867 C   0  0  0  0  0  0  0  0  0  0  0  0
   -6.6328  -27.7909   26.4601 C   0  0  0  0  0  0  0  0  0  0  0  0
   -6.6800  -26.4954   26.9845 C   0  0  0  0  0  0  0  0  0  0  0  0
   -5.5694  -25.7612   27.1197 F   0  0  0  0  0  0  0  0  0  0  0  0
   -7.9175  -26.0071   27.3953 C   0  0  0  0  0  0  0  0  0  0  0  0
   -8.3575  -24.8528   28.0040 N   0  0  0  0  0  0  0  0  0  0  0  0
   -9.7032  -25.0316   28.2875 C   0  0  0  0  0  0  0  0  0  0  0  0
  -10.4167  -24.2426   29.1982 C   0  0  0  0  0  0  0  0  0  0  0  0
  -10.3706  -24.4968   30.5207 C   0  0  0  0  0  0  0  0  0  0  0  0
  -11.0353  -23.5143   31.2352 N   0  0  0  0  0  0  0  0  0  0  0  0
  -11.1612  -23.1653   32.5450 C   0  0  0  0  0  0  0  0  0  0  0  0
  -11.8359  -21.9605   32.5027 C   0  0  0  0  0  0  0  0  0  0  0  0
  -12.1244  -21.5895   31.2010 N   0  0  0  0  0  0  0  0  0  0  0  0
  -11.6442  -22.5582   30.4812 C   0  0  0  0  0  0  0  0  0  0  0  0
  -11.4090  -22.8500   28.7792 S   0  0  0  0  0  0  0  0  0  0  0  0
  -10.1523  -26.1385   27.7623 N   0  0  0  0  0  0  0  0  0  0  0  0
   -9.0656  -26.7720   27.2815 C   0  0  0  0  0  0  0  0  0  0  0  0
   -9.0308  -28.0406   26.7365 C   0  0  0  0  0  0  0  0  0  0  0  0
   -6.9019  -30.0844   25.1419 H   0  0  0  0  0  0  0  0  0  0  0  0
   -8.3376  -30.5795   26.1315 H   0  0  0  0  0  0  0  0  0  0  0  0
   -8.5315  -29.6766   24.6359 H   0  0  0  0  0  0  0  0  0  0  0  0
   -5.6788  -28.1728   26.1066 H   0  0  0  0  0  0  0  0  0  0  0  0
   -7.7788  -24.0789   28.2979 H   0  0  0  0  0  0  0  0  0  0  0  0
   -9.8172  -25.2746   31.0305 H   0  0  0  0  0  0  0  0  0  0  0  0
  -10.8018  -23.7776   33.3594 H   0  0  0  0  0  0  0  0  0  0  0  0
  -12.1455  -21.3526   33.3446 H   0  0  0  0  0  0  0  0  0  0  0  0
   -9.9506  -28.6027   26.6111 H   0  0  0  0  0  0  0  0  0  0  0  0
  1  2  1  0
  2  3  2  0
  3  4  1  0
  4  5  1  0
  4  6  2  0
  6  7  1  0
  7  8  1  0
  8  9  1  0
  9 10  2  0
 10 11  1  0
 11 12  1  0
 12 13  2  0
 13 14  1  0
 14 15  2  0
 15 16  1  0
  8 17  2  0
 17 18  1  0
 18 19  2  0
 19  2  1  0
 18  6  1  0
 16  9  1  0
 15 11  1  0
  1 20  1  0
  1 21  1  0
  1 22  1  0
  3 23  1  0
  7 24  1  0
 10 25  1  0
 12 26  1  0
 13 27  1  0
 19 28  1  0
M  END
>  <Energy>  (1321) 
33.060900083021039

>  <compound_id>  (1321) 
60317

>  <target_id>  (1321) 
1

>  <reference_id>  (1321) 
45

>  <inspiration_ids>  (1321) 
[52, 45]

>  <energy_score>  (1321) 
-15.96517616248002

>  <distance_score>  (1321) 
2.030965629869753

>  <path>  (1321) 
/opt/xchem-fragalysis-2/maxwin/BulkDock/SCRATCH/511020/C60317-P45/C60317-P45.minimised.mol

>  <scratch_subdir>  (1321) 
/opt/xchem-fragalysis-2/maxwin/BulkDock/SCRATCH/511020/C60317-P45

>  <fragmenstein_runtime>  (1321) 
2.726773500442505

>  <fragmenstein_outcome>  (1321) 
too moved

>  <fragmenstein_mode>  (1321) 
expansion

>  <fragmenstein_error>  (1321) 


$$$$
C60333-P52
     RDKit          3D

 54 58  0  0  0  0  0  0  0  0999 V2000
  -13.0050  -20.5426   34.0420 C   0  0  0  0  0  0  0  0  0  0  0  0
  -11.9761  -21.5539   33.7094 C   0  0  0  0  0  0  0  0  0  0  0  0
  -11.3843  -22.3688   34.5562 N   0  0  0  0  0  0  0  0  0  0  0  0
  -10.7049  -23.2641   33.7837 C   0  0  0  0  0  0  0  0  0  0  0  0
   -9.9901  -24.4044   34.1463 C   0  0  0  0  0  0  0  0  0  0  0  0
   -9.5643  -25.2822   33.1477 C   0  0  0  0  0  0  0  0  0  0  0  0
   -9.7149  -24.9553   31.8123 C   0  0  0  0  0  0  0  0  0  0  0  0
  -10.3185  -23.7656   31.4392 C   0  0  0  0  0  0  0  0  0  0  0  0
  -10.8280  -22.9565   32.4434 C   0  0  0  0  0  0  0  0  0  0  0  0
  -11.4831  -21.7619   32.4459 N   0  0  0  0  0  0  0  0  0  0  0  0
  -11.4098  -20.7696   31.4130 C   0  0  0  0  0  0  0  0  0  0  0  0
  -12.4262  -20.8774   30.3238 C   0  0  0  0  0  0  0  0  0  0  0  0
  -12.1362  -21.8219   29.2503 C   0  0  0  0  0  0  0  0  0  0  0  0
  -12.8074  -23.2690   29.5069 O   0  0  0  0  0  0  0  0  0  0  0  0
  -11.5821  -21.9778   28.3352 N   0  0  0  0  0  0  0  0  0  0  0  0
  -11.1893  -22.9972   27.3747 C   0  0  0  0  0  0  0  0  0  0  0  0
  -10.1515  -23.7522   27.9223 C   0  0  0  0  0  0  0  0  0  0  0  0
  -10.2731  -25.1206   28.0758 C   0  0  0  0  0  0  0  0  0  0  0  0
  -11.4433  -25.6852   27.5979 C   0  0  0  0  0  0  0  0  0  0  0  0
  -12.3415  -24.9959   26.7960 C   0  0  0  0  0  0  0  0  0  0  0  0
  -12.1829  -23.6176   26.6118 C   0  0  0  0  0  0  0  0  0  0  0  0
  -13.3595  -25.8179   26.3908 N   0  0  0  0  0  0  0  0  0  0  0  0
  -13.1822  -26.9445   27.0521 C   0  0  0  0  0  0  0  0  0  0  0  0
  -12.0849  -26.8652   27.8660 N   0  0  0  0  0  0  0  0  0  0  0  0
  -11.7481  -27.7574   28.9476 C   0  0  0  0  0  0  0  0  0  0  0  0
  -12.8735  -28.1072   29.9069 C   0  0  0  0  0  0  0  0  0  0  0  0
  -13.8905  -29.0799   29.3323 C   0  0  0  0  0  0  0  0  0  0  0  0
  -14.7849  -28.4554   28.2654 C   0  0  0  0  0  0  0  0  0  0  0  0
  -14.0481  -28.1458   26.9738 C   0  0  0  0  0  0  0  0  0  0  0  0
  -12.5419  -19.6556   34.4831 H   0  0  0  0  0  0  0  0  0  0  0  0
  -13.5761  -20.2340   33.1619 H   0  0  0  0  0  0  0  0  0  0  0  0
  -13.7235  -20.9631   34.7512 H   0  0  0  0  0  0  0  0  0  0  0  0
   -9.8362  -24.6208   35.1880 H   0  0  0  0  0  0  0  0  0  0  0  0
   -9.0654  -26.2083   33.4104 H   0  0  0  0  0  0  0  0  0  0  0  0
   -9.3315  -25.6179   31.0491 H   0  0  0  0  0  0  0  0  0  0  0  0
  -10.4408  -23.5129   30.4069 H   0  0  0  0  0  0  0  0  0  0  0  0
  -11.4847  -19.8077   31.9236 H   0  0  0  0  0  0  0  0  0  0  0  0
  -10.4198  -20.7697   30.9971 H   0  0  0  0  0  0  0  0  0  0  0  0
  -12.4054  -19.9401   29.7644 H   0  0  0  0  0  0  0  0  0  0  0  0
  -13.4217  -21.0666   30.7360 H   0  0  0  0  0  0  0  0  0  0  0  0
  -10.9251  -21.7165   27.5962 H   0  0  0  0  0  0  0  0  0  0  0  0
   -9.3833  -23.2489   28.5047 H   0  0  0  0  0  0  0  0  0  0  0  0
   -9.5618  -25.6405   28.6938 H   0  0  0  0  0  0  0  0  0  0  0  0
  -12.9596  -23.0584   26.1095 H   0  0  0  0  0  0  0  0  0  0  0  0
  -11.0234  -27.2211   29.5555 H   0  0  0  0  0  0  0  0  0  0  0  0
  -11.2809  -28.6538   28.5330 H   0  0  0  0  0  0  0  0  0  0  0  0
  -13.3785  -27.1971   30.2507 H   0  0  0  0  0  0  0  0  0  0  0  0
  -12.4311  -28.5742   30.7959 H   0  0  0  0  0  0  0  0  0  0  0  0
  -14.5337  -29.4233   30.1522 H   0  0  0  0  0  0  0  0  0  0  0  0
  -13.3879  -29.9718   28.9388 H   0  0  0  0  0  0  0  0  0  0  0  0
  -15.5819  -29.1748   28.0385 H   0  0  0  0  0  0  0  0  0  0  0  0
  -15.2761  -27.5571   28.6598 H   0  0  0  0  0  0  0  0  0  0  0  0
  -14.7905  -27.9840   26.1832 H   0  0  0  0  0  0  0  0  0  0  0  0
  -13.4532  -29.0168   26.6896 H   0  0  0  0  0  0  0  0  0  0  0  0
  1  2  1  0
  2  3  2  0
  3  4  1  0
  4  5  2  0
  5  6  1  0
  6  7  2  0
  7  8  1  0
  8  9  2  0
  9 10  1  0
 10 11  1  0
 11 12  1  0
 12 13  1  0
 13 14  2  0
 13 15  1  0
 15 16  1  0
 16 17  2  0
 17 18  1  0
 18 19  2  0
 19 20  1  0
 20 21  2  0
 20 22  1  0
 22 23  2  0
 23 24  1  0
 24 25  1  0
 25 26  1  0
 26 27  1  0
 27 28  1  0
 28 29  1  0
 10  2  1  0
 21 16  1  0
 29 23  1  0
  9  4  1  0
 24 19  1  0
  1 30  1  0
  1 31  1  0
  1 32  1  0
  5 33  1  0
  6 34  1  0
  7 35  1  0
  8 36  1  0
 11 37  1  0
 11 38  1  0
 12 39  1  0
 12 40  1  0
 15 41  1  0
 17 42  1  0
 18 43  1  0
 21 44  1  0
 25 45  1  0
 25 46  1  0
 26 47  1  0
 26 48  1  0
 27 49  1  0
 27 50  1  0
 28 51  1  0
 28 52  1  0
 29 53  1  0
 29 54  1  0
M  END
>  <Energy>  (1322) 
279.75403282993091

>  <compound_id>  (1322) 
60333

>  <target_id>  (1322) 
1

>  <reference_id>  (1322) 
52

>  <inspiration_ids>  (1322) 
[52, 45]

>  <energy_score>  (1322) 
217.2077218076458

>  <distance_score>  (1322) 
4.414864730305731

>  <path>  (1322) 
/opt/xchem-fragalysis-2/maxwin/BulkDock/SCRATCH/511020/C60333-P52/C60333-P52.minimised.mol

>  <scratch_subdir>  (1322) 
/opt/xchem-fragalysis-2/maxwin/BulkDock/SCRATCH/511020/C60333-P52

>  <fragmenstein_runtime>  (1322) 
28.94125270843506

>  <fragmenstein_outcome>  (1322) 
too moved

>  <fragmenstein_mode>  (1322) 
expansion

>  <fragmenstein_error>  (1322) 


$$$$
C60333-P45
     RDKit          3D

 54 58  0  0  0  0  0  0  0  0999 V2000
  -11.6480  -22.6397   27.7481 C   0  0  0  0  0  0  0  0  0  0  0  0
  -11.6715  -22.7633   29.2037 C   0  0  0  0  0  0  0  0  0  0  0  0
  -11.9587  -21.8081   30.0635 N   0  0  0  0  0  0  0  0  0  0  0  0
  -11.6691  -22.3352   31.2880 C   0  0  0  0  0  0  0  0  0  0  0  0
  -11.9002  -21.8369   32.5692 C   0  0  0  0  0  0  0  0  0  0  0  0
  -11.6538  -22.6963   33.6338 C   0  0  0  0  0  0  0  0  0  0  0  0
  -10.9704  -23.8988   33.4536 C   0  0  0  0  0  0  0  0  0  0  0  0
  -10.5003  -24.2912   32.2121 C   0  0  0  0  0  0  0  0  0  0  0  0
  -11.0750  -23.5872   31.1479 C   0  0  0  0  0  0  0  0  0  0  0  0
  -11.3395  -23.9299   29.8409 N   0  0  0  0  0  0  0  0  0  0  0  0
  -11.2739  -25.2764   29.2691 C   0  0  0  0  0  0  0  0  0  0  0  0
  -12.6004  -26.1303   29.3072 C   0  0  0  0  0  0  0  0  0  0  0  0
  -12.9091  -26.8566   28.0560 C   0  0  0  0  0  0  0  0  0  0  0  0
  -13.0942  -28.0359   28.0245 O   0  0  0  0  0  0  0  0  0  0  0  0
  -12.8279  -25.9004   27.0113 N   0  0  0  0  0  0  0  0  0  0  0  0
  -12.8405  -26.0560   25.6197 C   0  0  0  0  0  0  0  0  0  0  0  0
  -12.2742  -24.9098   25.1089 C   0  0  0  0  0  0  0  0  0  0  0  0
  -10.9087  -24.7697   25.3435 C   0  0  0  0  0  0  0  0  0  0  0  0
  -10.2356  -25.8386   25.9407 C   0  0  0  0  0  0  0  0  0  0  0  0
  -10.8120  -27.1176   25.8458 C   0  0  0  0  0  0  0  0  0  0  0  0
  -12.1441  -27.2315   25.3782 C   0  0  0  0  0  0  0  0  0  0  0  0
   -9.9517  -28.0582   26.3134 N   0  0  0  0  0  0  0  0  0  0  0  0
   -8.8748  -27.4021   26.6796 C   0  0  0  0  0  0  0  0  0  0  0  0
   -9.0443  -26.0437   26.5996 N   0  0  0  0  0  0  0  0  0  0  0  0
   -8.2426  -25.1029   27.3478 C   0  0  0  0  0  0  0  0  0  0  0  0
   -6.7942  -24.9290   26.9299 C   0  0  0  0  0  0  0  0  0  0  0  0
   -5.8509  -26.1341   26.9334 C   0  0  0  0  0  0  0  0  0  0  0  0
   -6.3389  -27.5647   26.6934 C   0  0  0  0  0  0  0  0  0  0  0  0
   -7.6757  -28.0153   27.2393 C   0  0  0  0  0  0  0  0  0  0  0  0
  -10.7909  -23.1739   27.3573 H   0  0  0  0  0  0  0  0  0  0  0  0
  -12.5512  -23.0406   27.3064 H   0  0  0  0  0  0  0  0  0  0  0  0
  -11.5431  -21.6129   27.4365 H   0  0  0  0  0  0  0  0  0  0  0  0
  -12.3859  -20.8921   32.7432 H   0  0  0  0  0  0  0  0  0  0  0  0
  -12.0052  -22.4242   34.6202 H   0  0  0  0  0  0  0  0  0  0  0  0
  -10.8853  -24.5972   34.2829 H   0  0  0  0  0  0  0  0  0  0  0  0
   -9.9940  -25.2450   32.0949 H   0  0  0  0  0  0  0  0  0  0  0  0
  -10.8763  -25.1546   28.2740 H   0  0  0  0  0  0  0  0  0  0  0  0
  -10.4883  -25.8144   29.8152 H   0  0  0  0  0  0  0  0  0  0  0  0
  -13.4812  -25.5941   29.6496 H   0  0  0  0  0  0  0  0  0  0  0  0
  -12.3956  -26.9992   29.9360 H   0  0  0  0  0  0  0  0  0  0  0  0
  -12.7435  -24.9750   27.4164 H   0  0  0  0  0  0  0  0  0  0  0  0
  -12.8692  -24.0388   24.8438 H   0  0  0  0  0  0  0  0  0  0  0  0
  -10.4385  -23.8526   25.1100 H   0  0  0  0  0  0  0  0  0  0  0  0
  -12.6452  -28.1790   25.5128 H   0  0  0  0  0  0  0  0  0  0  0  0
   -8.2936  -25.4081   28.3991 H   0  0  0  0  0  0  0  0  0  0  0  0
   -8.7420  -24.1334   27.2994 H   0  0  0  0  0  0  0  0  0  0  0  0
   -6.3527  -24.1805   27.6042 H   0  0  0  0  0  0  0  0  0  0  0  0
   -6.7702  -24.4307   25.9627 H   0  0  0  0  0  0  0  0  0  0  0  0
   -5.2796  -26.1236   27.8587 H   0  0  0  0  0  0  0  0  0  0  0  0
   -5.0371  -25.9250   26.2341 H   0  0  0  0  0  0  0  0  0  0  0  0
   -6.3047  -27.8076   25.6393 H   0  0  0  0  0  0  0  0  0  0  0  0
   -5.5700  -28.2138   27.1298 H   0  0  0  0  0  0  0  0  0  0  0  0
   -7.7734  -27.7885   28.2877 H   0  0  0  0  0  0  0  0  0  0  0  0
   -7.7482  -29.1007   27.1073 H   0  0  0  0  0  0  0  0  0  0  0  0
  1  2  1  0
  2  3  2  0
  3  4  1  0
  4  5  2  0
  5  6  1  0
  6  7  2  0
  7  8  1  0
  8  9  2  0
  9 10  1  0
 10 11  1  0
 11 12  1  0
 12 13  1  0
 13 14  2  0
 13 15  1  0
 15 16  1  0
 16 17  2  0
 17 18  1  0
 18 19  2  0
 19 20  1  0
 20 21  2  0
 20 22  1  0
 22 23  2  0
 23 24  1  0
 24 25  1  0
 25 26  1  0
 26 27  1  0
 27 28  1  0
 28 29  1  0
 10  2  1  0
 21 16  1  0
 29 23  1  0
  9  4  1  0
 24 19  1  0
  1 30  1  0
  1 31  1  0
  1 32  1  0
  5 33  1  0
  6 34  1  0
  7 35  1  0
  8 36  1  0
 11 37  1  0
 11 38  1  0
 12 39  1  0
 12 40  1  0
 15 41  1  0
 17 42  1  0
 18 43  1  0
 21 44  1  0
 25 45  1  0
 25 46  1  0
 26 47  1  0
 26 48  1  0
 27 49  1  0
 27 50  1  0
 28 51  1  0
 28 52  1  0
 29 53  1  0
 29 54  1  0
M  END
>  <Energy>  (1323) 
132.78089298069918

>  <compound_id>  (1323) 
60333

>  <target_id>  (1323) 
1

>  <reference_id>  (1323) 
45

>  <inspiration_ids>  (1323) 
[52, 45]

>  <energy_score>  (1323) 
70.23458195840726

>  <distance_score>  (1323) 
3.170786131126184

>  <path>  (1323) 
/opt/xchem-fragalysis-2/maxwin/BulkDock/SCRATCH/511020/C60333-P45/C60333-P45.minimised.mol

>  <scratch_subdir>  (1323) 
/opt/xchem-fragalysis-2/maxwin/BulkDock/SCRATCH/511020/C60333-P45

>  <fragmenstein_runtime>  (1323) 
22.68590497970581

>  <fragmenstein_outcome>  (1323) 
too moved

>  <fragmenstein_mode>  (1323) 
expansion

>  <fragmenstein_error>  (1323) 


$$$$
C60334-P52
     RDKit          3D

 35 38  0  0  0  0  0  0  0  0999 V2000
  -14.9653  -19.8220   34.1606 C   0  0  0  0  0  0  0  0  0  0  0  0
  -13.7137  -20.5312   33.8164 C   0  0  0  0  0  0  0  0  0  0  0  0
  -13.0328  -20.4332   32.7007 N   0  0  0  0  0  0  0  0  0  0  0  0
  -12.0745  -21.3953   32.8068 C   0  0  0  0  0  0  0  0  0  0  0  0
  -11.3083  -21.9562   31.8193 C   0  0  0  0  0  0  0  0  0  0  0  0
  -10.7719  -23.1929   32.1735 C   0  0  0  0  0  0  0  0  0  0  0  0
  -10.7914  -24.0813   31.1503 N   0  0  0  0  0  0  0  0  0  0  0  0
  -10.7354  -25.6252   31.1605 C   0  0  0  0  0  0  0  0  0  0  0  0
  -10.5867  -26.3690   32.0439 O   0  0  0  0  0  0  0  0  0  0  0  0
  -10.8160  -25.9942   29.7103 C   0  0  0  0  0  0  0  0  0  0  0  0
  -11.6265  -26.9722   29.2711 C   0  0  0  0  0  0  0  0  0  0  0  0
  -11.9181  -27.0334   27.8500 C   0  0  0  0  0  0  0  0  0  0  0  0
  -11.4936  -26.0777   26.9981 C   0  0  0  0  0  0  0  0  0  0  0  0
  -10.6727  -25.0389   27.4815 C   0  0  0  0  0  0  0  0  0  0  0  0
  -10.4418  -23.8179   27.0496 N   0  0  0  0  0  0  0  0  0  0  0  0
   -9.7112  -23.2290   28.0410 C   0  0  0  0  0  0  0  0  0  0  0  0
   -9.3042  -24.1639   28.9592 C   0  0  0  0  0  0  0  0  0  0  0  0
  -10.1882  -25.1838   28.7603 N   0  0  0  0  0  0  0  0  0  0  0  0
  -10.4693  -23.5875   33.4579 C   0  0  0  0  0  0  0  0  0  0  0  0
  -11.0924  -22.9043   34.4729 C   0  0  0  0  0  0  0  0  0  0  0  0
  -12.0141  -21.9430   34.0675 C   0  0  0  0  0  0  0  0  0  0  0  0
  -13.1337  -21.4454   34.6548 N   0  0  0  0  0  0  0  0  0  0  0  0
  -15.5448  -19.6115   33.2562 H   0  0  0  0  0  0  0  0  0  0  0  0
  -15.5910  -20.4170   34.8332 H   0  0  0  0  0  0  0  0  0  0  0  0
  -14.7372  -18.8700   34.6493 H   0  0  0  0  0  0  0  0  0  0  0  0
  -11.4541  -21.6321   30.7967 H   0  0  0  0  0  0  0  0  0  0  0  0
  -11.0158  -23.7585   30.2222 H   0  0  0  0  0  0  0  0  0  0  0  0
  -12.1852  -27.6111   29.9478 H   0  0  0  0  0  0  0  0  0  0  0  0
  -12.5921  -27.8137   27.5056 H   0  0  0  0  0  0  0  0  0  0  0  0
  -11.7956  -26.0625   25.9567 H   0  0  0  0  0  0  0  0  0  0  0  0
   -9.4584  -22.1831   28.0516 H   0  0  0  0  0  0  0  0  0  0  0  0
   -8.6768  -24.0886   29.8381 H   0  0  0  0  0  0  0  0  0  0  0  0
   -9.9145  -24.4964   33.6668 H   0  0  0  0  0  0  0  0  0  0  0  0
  -11.0316  -23.2417   35.4948 H   0  0  0  0  0  0  0  0  0  0  0  0
  -13.5192  -21.7935   35.5199 H   0  0  0  0  0  0  0  0  0  0  0  0
  1  2  1  0
  2  3  2  0
  3  4  1  0
  4  5  2  0
  5  6  1  0
  6  7  1  0
  7  8  1  0
  8  9  2  0
  8 10  1  0
 10 11  2  0
 11 12  1  0
 12 13  2  0
 13 14  1  0
 14 15  2  0
 15 16  1  0
 16 17  2  0
 17 18  1  0
  6 19  2  0
 19 20  1  0
 20 21  2  0
 21 22  1  0
 22  2  1  0
 21  4  1  0
 18 10  1  0
 18 14  1  0
  1 23  1  0
  1 24  1  0
  1 25  1  0
  5 26  1  0
  7 27  1  0
 11 28  1  0
 12 29  1  0
 13 30  1  0
 16 31  1  0
 17 32  1  0
 19 33  1  0
 20 34  1  0
 22 35  1  0
M  END
>  <Energy>  (1324) 
74.619794492900624

>  <compound_id>  (1324) 
60334

>  <target_id>  (1324) 
1

>  <reference_id>  (1324) 
52

>  <inspiration_ids>  (1324) 
[52, 45]

>  <energy_score>  (1324) 
12.165433930113068

>  <distance_score>  (1324) 
3.9023995564238727

>  <path>  (1324) 
/opt/xchem-fragalysis-2/maxwin/BulkDock/SCRATCH/511020/C60334-P52/C60334-P52.minimised.mol

>  <scratch_subdir>  (1324) 
/opt/xchem-fragalysis-2/maxwin/BulkDock/SCRATCH/511020/C60334-P52

>  <fragmenstein_runtime>  (1324) 
9.40536117553711

>  <fragmenstein_outcome>  (1324) 
too moved

>  <fragmenstein_mode>  (1324) 
expansion

>  <fragmenstein_error>  (1324) 


$$$$
C60334-P45
     RDKit          3D

 35 38  0  0  0  0  0  0  0  0999 V2000
  -12.3823  -20.8965   34.4822 C   0  0  0  0  0  0  0  0  0  0  0  0
  -12.0610  -21.7619   33.3329 C   0  0  0  0  0  0  0  0  0  0  0  0
  -11.2145  -22.7613   33.1901 N   0  0  0  0  0  0  0  0  0  0  0  0
  -11.2360  -23.0809   31.8534 C   0  0  0  0  0  0  0  0  0  0  0  0
  -10.6367  -24.0959   31.0888 C   0  0  0  0  0  0  0  0  0  0  0  0
  -10.8384  -24.0741   29.6756 C   0  0  0  0  0  0  0  0  0  0  0  0
  -10.1463  -24.8957   28.8115 N   0  0  0  0  0  0  0  0  0  0  0  0
   -9.6722  -26.3363   28.9785 C   0  0  0  0  0  0  0  0  0  0  0  0
   -9.8529  -27.0933   29.8396 O   0  0  0  0  0  0  0  0  0  0  0  0
   -8.7676  -26.6492   27.8164 C   0  0  0  0  0  0  0  0  0  0  0  0
   -8.7981  -27.9070   27.3291 C   0  0  0  0  0  0  0  0  0  0  0  0
   -7.6620  -28.4183   26.5910 C   0  0  0  0  0  0  0  0  0  0  0  0
   -6.5502  -27.6791   26.4461 C   0  0  0  0  0  0  0  0  0  0  0  0
   -6.5258  -26.3229   26.8682 C   0  0  0  0  0  0  0  0  0  0  0  0
   -5.5708  -25.4184   26.8157 N   0  0  0  0  0  0  0  0  0  0  0  0
   -6.0602  -24.3059   27.4183 C   0  0  0  0  0  0  0  0  0  0  0  0
   -7.3396  -24.5287   27.8455 C   0  0  0  0  0  0  0  0  0  0  0  0
   -7.6550  -25.8318   27.5068 N   0  0  0  0  0  0  0  0  0  0  0  0
  -11.4788  -23.0218   29.0621 C   0  0  0  0  0  0  0  0  0  0  0  0
  -12.0768  -22.0398   29.8110 C   0  0  0  0  0  0  0  0  0  0  0  0
  -12.0112  -22.1590   31.1797 C   0  0  0  0  0  0  0  0  0  0  0  0
  -12.7269  -21.5819   32.1736 N   0  0  0  0  0  0  0  0  0  0  0  0
  -11.8538  -21.1931   35.3787 H   0  0  0  0  0  0  0  0  0  0  0  0
  -12.0935  -19.8619   34.2675 H   0  0  0  0  0  0  0  0  0  0  0  0
  -13.4572  -20.9080   34.6858 H   0  0  0  0  0  0  0  0  0  0  0  0
   -9.9993  -24.8353   31.5692 H   0  0  0  0  0  0  0  0  0  0  0  0
   -9.8743  -24.5547   27.8982 H   0  0  0  0  0  0  0  0  0  0  0  0
   -9.5750  -28.6145   27.6016 H   0  0  0  0  0  0  0  0  0  0  0  0
   -7.6905  -29.4499   26.2470 H   0  0  0  0  0  0  0  0  0  0  0  0
   -5.6652  -28.0784   25.9634 H   0  0  0  0  0  0  0  0  0  0  0  0
   -5.4636  -23.4143   27.5496 H   0  0  0  0  0  0  0  0  0  0  0  0
   -7.9879  -23.8769   28.4024 H   0  0  0  0  0  0  0  0  0  0  0  0
  -11.5427  -22.9507   27.9776 H   0  0  0  0  0  0  0  0  0  0  0  0
  -12.5793  -21.2259   29.3202 H   0  0  0  0  0  0  0  0  0  0  0  0
  -13.6365  -21.1608   32.1092 H   0  0  0  0  0  0  0  0  0  0  0  0
  1  2  1  0
  2  3  2  0
  3  4  1  0
  4  5  2  0
  5  6  1  0
  6  7  1  0
  7  8  1  0
  8  9  2  0
  8 10  1  0
 10 11  2  0
 11 12  1  0
 12 13  2  0
 13 14  1  0
 14 15  2  0
 15 16  1  0
 16 17  2  0
 17 18  1  0
  6 19  2  0
 19 20  1  0
 20 21  2  0
 21 22  1  0
 22  2  1  0
 21  4  1  0
 18 10  1  0
 18 14  1  0
  1 23  1  0
  1 24  1  0
  1 25  1  0
  5 26  1  0
  7 27  1  0
 11 28  1  0
 12 29  1  0
 13 30  1  0
 16 31  1  0
 17 32  1  0
 19 33  1  0
 20 34  1  0
 22 35  1  0
M  END
>  <Energy>  (1325) 
54.039463621465785

>  <compound_id>  (1325) 
60334

>  <target_id>  (1325) 
1

>  <reference_id>  (1325) 
45

>  <inspiration_ids>  (1325) 
[52, 45]

>  <energy_score>  (1325) 
-8.414896941316954

>  <distance_score>  (1325) 
2.585783878051887

>  <path>  (1325) 
/opt/xchem-fragalysis-2/maxwin/BulkDock/SCRATCH/511020/C60334-P45/C60334-P45.minimised.mol

>  <scratch_subdir>  (1325) 
/opt/xchem-fragalysis-2/maxwin/BulkDock/SCRATCH/511020/C60334-P45

>  <fragmenstein_runtime>  (1325) 
7.704558372497559

>  <fragmenstein_outcome>  (1325) 
too moved

>  <fragmenstein_mode>  (1325) 
expansion

>  <fragmenstein_error>  (1325) 


$$$$
C60335-P52
     RDKit          3D

 42 46  0  0  0  0  0  0  0  0999 V2000
  -10.6579  -27.6577   27.7216 O   0  0  0  0  0  0  0  0  0  0  0  0
  -10.0172  -26.7436   27.3608 C   0  0  0  0  0  0  0  0  0  0  0  0
   -8.3641  -26.9220   27.2591 C   0  0  0  0  0  0  0  0  0  0  0  0
   -7.2439  -27.6598   26.7310 C   0  0  0  0  0  0  0  0  0  0  0  0
   -5.7658  -27.1289   27.1882 N   0  0  0  0  0  0  0  0  0  0  0  0
   -4.2072  -27.0702   27.0604 C   0  0  0  0  0  0  0  0  0  0  0  0
   -3.6861  -26.4730   28.1913 C   0  0  0  0  0  0  0  0  0  0  0  0
   -4.6989  -25.9398   28.8337 N   0  0  0  0  0  0  0  0  0  0  0  0
   -5.8623  -26.2179   28.2900 C   0  0  0  0  0  0  0  0  0  0  0  0
   -7.8391  -25.6795   28.7939 S   0  0  0  0  0  0  0  0  0  0  0  0
  -10.4001  -25.3595   26.9274 N   0  0  0  0  0  0  0  0  0  0  0  0
  -12.2400  -24.7318   26.6344 C   0  0  0  0  0  0  0  0  0  0  0  0
  -13.4768  -25.6594   27.3603 C   0  0  0  0  0  0  0  0  0  0  0  0
  -13.3325  -25.2402   28.7811 C   0  0  0  0  0  0  0  0  0  0  0  0
  -11.8598  -24.9486   28.7641 C   0  0  0  0  0  0  0  0  0  0  0  0
  -11.3542  -23.9553   29.7654 C   0  0  0  0  0  0  0  0  0  0  0  0
  -10.1720  -24.0860   30.3242 N   0  0  0  0  0  0  0  0  0  0  0  0
  -10.2944  -23.5542   31.5688 C   0  0  0  0  0  0  0  0  0  0  0  0
   -9.4417  -23.6785   32.6637 C   0  0  0  0  0  0  0  0  0  0  0  0
   -9.8792  -23.1813   33.8892 C   0  0  0  0  0  0  0  0  0  0  0  0
  -11.0971  -22.5034   33.9992 C   0  0  0  0  0  0  0  0  0  0  0  0
  -11.9235  -22.3015   32.8905 C   0  0  0  0  0  0  0  0  0  0  0  0
  -11.4985  -22.8810   31.6974 C   0  0  0  0  0  0  0  0  0  0  0  0
  -12.1048  -23.0397   30.4719 N   0  0  0  0  0  0  0  0  0  0  0  0
  -11.5148  -24.6904   26.9294 C   0  0  0  0  0  0  0  0  0  0  0  0
   -7.2478  -28.4797   26.0293 H   0  0  0  0  0  0  0  0  0  0  0  0
   -3.6409  -27.0072   26.1472 H   0  0  0  0  0  0  0  0  0  0  0  0
   -2.6644  -26.2364   28.4367 H   0  0  0  0  0  0  0  0  0  0  0  0
  -12.4633  -25.2333   25.5260 H   0  0  0  0  0  0  0  0  0  0  0  0
  -12.6916  -23.5778   26.3118 H   0  0  0  0  0  0  0  0  0  0  0  0
  -14.4442  -25.3956   26.9236 H   0  0  0  0  0  0  0  0  0  0  0  0
  -13.2672  -26.7234   27.1999 H   0  0  0  0  0  0  0  0  0  0  0  0
  -13.9058  -24.3375   28.9655 H   0  0  0  0  0  0  0  0  0  0  0  0
  -13.6291  -26.0218   29.4833 H   0  0  0  0  0  0  0  0  0  0  0  0
  -11.3771  -25.8844   29.0677 H   0  0  0  0  0  0  0  0  0  0  0  0
   -8.5015  -24.2102   32.5711 H   0  0  0  0  0  0  0  0  0  0  0  0
   -9.2534  -23.3416   34.7602 H   0  0  0  0  0  0  0  0  0  0  0  0
  -11.4309  -22.1394   34.9696 H   0  0  0  0  0  0  0  0  0  0  0  0
  -12.8857  -21.8100   32.9895 H   0  0  0  0  0  0  0  0  0  0  0  0
  -13.0620  -22.7791   30.2978 H   0  0  0  0  0  0  0  0  0  0  0  0
  -11.1346  -23.6218   27.5061 H   0  0  0  0  0  0  0  0  0  0  0  0
  -10.8022  -23.8717   26.1968 H   0  0  0  0  0  0  0  0  0  0  0  0
  1  2  2  0
  2  3  1  0
  3  4  2  0
  4  5  1  0
  5  6  1  0
  6  7  2  0
  7  8  1  0
  8  9  2  0
  9 10  1  0
  2 11  1  0
 11 12  1  0
 12 13  1  0
 13 14  1  0
 14 15  1  0
 15 16  1  0
 16 17  2  0
 17 18  1  0
 18 19  2  0
 19 20  1  0
 20 21  2  0
 21 22  1  0
 22 23  2  0
 23 24  1  0
 15 25  1  0
 10  3  1  0
 25 11  1  0
  9  5  1  0
 24 16  1  0
 23 18  1  0
  4 26  1  0
  6 27  1  0
  7 28  1  0
 12 29  1  0
 12 30  1  0
 13 31  1  0
 13 32  1  0
 14 33  1  0
 14 34  1  0
 15 35  1  0
 19 36  1  0
 20 37  1  0
 21 38  1  0
 22 39  1  0
 24 40  1  0
 25 41  1  0
 25 42  1  0
M  END
>  <Energy>  (1326) 
978.06888399726279

>  <compound_id>  (1326) 
60335

>  <target_id>  (1326) 
1

>  <reference_id>  (1326) 
52

>  <inspiration_ids>  (1326) 
[52, 45]

>  <energy_score>  (1326) 
875.2528453443991

>  <distance_score>  (1326) 
2.698207663178626

>  <path>  (1326) 
/opt/xchem-fragalysis-2/maxwin/BulkDock/SCRATCH/511020/C60335-P52/C60335-P52.minimised.mol

>  <scratch_subdir>  (1326) 
/opt/xchem-fragalysis-2/maxwin/BulkDock/SCRATCH/511020/C60335-P52

>  <fragmenstein_runtime>  (1326) 
11.031582832336426

>  <fragmenstein_outcome>  (1326) 
too moved

>  <fragmenstein_mode>  (1326) 
expansion

>  <fragmenstein_error>  (1326) 


$$$$
C60335-P45
     RDKit          3D

 42 46  0  0  0  0  0  0  0  0999 V2000
   -9.9372  -28.9515   27.0374 O   0  0  0  0  0  0  0  0  0  0  0  0
   -9.7405  -27.8411   26.8070 C   0  0  0  0  0  0  0  0  0  0  0  0
   -8.3910  -27.2268   26.8449 C   0  0  0  0  0  0  0  0  0  0  0  0
   -7.2559  -27.9233   26.7055 C   0  0  0  0  0  0  0  0  0  0  0  0
   -6.1815  -27.0860   26.8024 N   0  0  0  0  0  0  0  0  0  0  0  0
   -4.8418  -27.2185   26.7959 C   0  0  0  0  0  0  0  0  0  0  0  0
   -4.3716  -25.9339   26.9906 C   0  0  0  0  0  0  0  0  0  0  0  0
   -5.3908  -25.0186   27.1398 N   0  0  0  0  0  0  0  0  0  0  0  0
   -6.4498  -25.7651   27.0066 C   0  0  0  0  0  0  0  0  0  0  0  0
   -8.1419  -25.4850   27.1269 S   0  0  0  0  0  0  0  0  0  0  0  0
  -10.6926  -26.6363   26.5063 N   0  0  0  0  0  0  0  0  0  0  0  0
  -12.6146  -26.8535   26.2587 C   0  0  0  0  0  0  0  0  0  0  0  0
  -13.5412  -27.6870   27.4704 C   0  0  0  0  0  0  0  0  0  0  0  0
  -13.2357  -26.9391   28.7402 C   0  0  0  0  0  0  0  0  0  0  0  0
  -11.8660  -26.4491   28.3590 C   0  0  0  0  0  0  0  0  0  0  0  0
  -11.3360  -25.2261   29.0688 C   0  0  0  0  0  0  0  0  0  0  0  0
  -10.5329  -25.3102   30.1170 N   0  0  0  0  0  0  0  0  0  0  0  0
  -10.7305  -24.1614   30.8329 C   0  0  0  0  0  0  0  0  0  0  0  0
  -10.5219  -23.9599   32.2096 C   0  0  0  0  0  0  0  0  0  0  0  0
  -11.1684  -22.8699   32.7901 C   0  0  0  0  0  0  0  0  0  0  0  0
  -11.8043  -21.9074   32.0063 C   0  0  0  0  0  0  0  0  0  0  0  0
  -11.9519  -22.0741   30.6228 C   0  0  0  0  0  0  0  0  0  0  0  0
  -11.4935  -23.2716   30.0979 C   0  0  0  0  0  0  0  0  0  0  0  0
  -11.7349  -23.9174   28.9062 N   0  0  0  0  0  0  0  0  0  0  0  0
  -11.9811  -26.4366   26.5225 C   0  0  0  0  0  0  0  0  0  0  0  0
   -7.1475  -28.9841   26.5366 H   0  0  0  0  0  0  0  0  0  0  0  0
   -4.3419  -28.1572   26.6447 H   0  0  0  0  0  0  0  0  0  0  0  0
   -3.3311  -25.6502   27.0446 H   0  0  0  0  0  0  0  0  0  0  0  0
  -12.5852  -27.8132   25.5135 H   0  0  0  0  0  0  0  0  0  0  0  0
  -13.3461  -26.2251   25.4455 H   0  0  0  0  0  0  0  0  0  0  0  0
  -14.5994  -27.6696   27.1942 H   0  0  0  0  0  0  0  0  0  0  0  0
  -13.1829  -28.7233   27.5115 H   0  0  0  0  0  0  0  0  0  0  0  0
  -13.9439  -26.1315   28.9168 H   0  0  0  0  0  0  0  0  0  0  0  0
  -13.2412  -27.5960   29.6140 H   0  0  0  0  0  0  0  0  0  0  0  0
  -11.1881  -27.2666   28.6549 H   0  0  0  0  0  0  0  0  0  0  0  0
  -10.0410  -24.7243   32.8112 H   0  0  0  0  0  0  0  0  0  0  0  0
  -11.2275  -22.7980   33.8703 H   0  0  0  0  0  0  0  0  0  0  0  0
  -12.2573  -21.0630   32.5146 H   0  0  0  0  0  0  0  0  0  0  0  0
  -12.5083  -21.3933   30.0022 H   0  0  0  0  0  0  0  0  0  0  0  0
  -12.3654  -23.5715   28.2001 H   0  0  0  0  0  0  0  0  0  0  0  0
  -12.3053  -25.2332   26.8470 H   0  0  0  0  0  0  0  0  0  0  0  0
  -11.5465  -25.5406   25.7298 H   0  0  0  0  0  0  0  0  0  0  0  0
  1  2  2  0
  2  3  1  0
  3  4  2  0
  4  5  1  0
  5  6  1  0
  6  7  2  0
  7  8  1  0
  8  9  2  0
  9 10  1  0
  2 11  1  0
 11 12  1  0
 12 13  1  0
 13 14  1  0
 14 15  1  0
 15 16  1  0
 16 17  2  0
 17 18  1  0
 18 19  2  0
 19 20  1  0
 20 21  2  0
 21 22  1  0
 22 23  2  0
 23 24  1  0
 15 25  1  0
 10  3  1  0
 25 11  1  0
  9  5  1  0
 24 16  1  0
 23 18  1  0
  4 26  1  0
  6 27  1  0
  7 28  1  0
 12 29  1  0
 12 30  1  0
 13 31  1  0
 13 32  1  0
 14 33  1  0
 14 34  1  0
 15 35  1  0
 19 36  1  0
 20 37  1  0
 21 38  1  0
 22 39  1  0
 24 40  1  0
 25 41  1  0
 25 42  1  0
M  END
>  <Energy>  (1327) 
822.52588075214283

>  <compound_id>  (1327) 
60335

>  <target_id>  (1327) 
1

>  <reference_id>  (1327) 
45

>  <inspiration_ids>  (1327) 
[52, 45]

>  <energy_score>  (1327) 
719.709842099277

>  <distance_score>  (1327) 
2.8967285769375217

>  <path>  (1327) 
/opt/xchem-fragalysis-2/maxwin/BulkDock/SCRATCH/511020/C60335-P45/C60335-P45.minimised.mol

>  <scratch_subdir>  (1327) 
/opt/xchem-fragalysis-2/maxwin/BulkDock/SCRATCH/511020/C60335-P45

>  <fragmenstein_runtime>  (1327) 
10.489267110824585

>  <fragmenstein_outcome>  (1327) 
too moved

>  <fragmenstein_mode>  (1327) 
expansion

>  <fragmenstein_error>  (1327) 


$$$$
C60336-P52
     RDKit          3D

 42 46  0  0  0  0  0  0  0  0999 V2000
  -10.1407  -26.1235   25.4486 O   0  0  0  0  0  0  0  0  0  0  0  0
   -9.8755  -26.6411   26.5116 C   0  0  0  0  0  0  0  0  0  0  0  0
   -8.4169  -27.9934   26.3054 C   0  0  0  0  0  0  0  0  0  0  0  0
   -8.3034  -29.3208   26.0610 C   0  0  0  0  0  0  0  0  0  0  0  0
   -8.7339  -29.2051   27.6638 S   0  0  0  0  0  0  0  0  0  0  0  0
   -7.9092  -27.0677   27.4961 C   0  0  0  0  0  0  0  0  0  0  0  0
   -7.0213  -26.2128   28.1189 N   0  0  0  0  0  0  0  0  0  0  0  0
   -5.6072  -26.7860   27.6148 C   0  0  0  0  0  0  0  0  0  0  0  0
   -5.9233  -27.7811   26.6329 C   0  0  0  0  0  0  0  0  0  0  0  0
   -7.2336  -27.6146   26.5729 N   0  0  0  0  0  0  0  0  0  0  0  0
  -10.5312  -26.4974   27.8303 N   0  0  0  0  0  0  0  0  0  0  0  0
   -9.8831  -25.3543   28.6316 C   0  0  0  0  0  0  0  0  0  0  0  0
   -9.9650  -23.8648   28.1085 C   0  0  0  0  0  0  0  0  0  0  0  0
  -11.3001  -23.4685   27.5526 C   0  0  0  0  0  0  0  0  0  0  0  0
  -12.2321  -24.2458   28.4058 C   0  0  0  0  0  0  0  0  0  0  0  0
  -12.2580  -23.6115   29.8013 C   0  0  0  0  0  0  0  0  0  0  0  0
  -12.9456  -22.5227   30.0992 N   0  0  0  0  0  0  0  0  0  0  0  0
  -12.6053  -22.1862   31.3934 C   0  0  0  0  0  0  0  0  0  0  0  0
  -13.1267  -21.2125   32.2504 C   0  0  0  0  0  0  0  0  0  0  0  0
  -12.6238  -21.1214   33.5524 C   0  0  0  0  0  0  0  0  0  0  0  0
  -11.6145  -21.9785   33.9889 C   0  0  0  0  0  0  0  0  0  0  0  0
  -11.0617  -22.9440   33.1479 C   0  0  0  0  0  0  0  0  0  0  0  0
  -11.6250  -23.0331   31.8763 C   0  0  0  0  0  0  0  0  0  0  0  0
  -11.4942  -23.9692   30.8913 N   0  0  0  0  0  0  0  0  0  0  0  0
  -11.8272  -25.7398   28.2479 C   0  0  0  0  0  0  0  0  0  0  0  0
   -8.7752  -30.1878   25.6639 H   0  0  0  0  0  0  0  0  0  0  0  0
   -4.7153  -26.4879   28.1711 H   0  0  0  0  0  0  0  0  0  0  0  0
   -5.4199  -28.4591   25.9738 H   0  0  0  0  0  0  0  0  0  0  0  0
   -8.8288  -25.4709   28.7523 H   0  0  0  0  0  0  0  0  0  0  0  0
  -10.1481  -25.5094   29.6731 H   0  0  0  0  0  0  0  0  0  0  0  0
   -9.2922  -23.6063   27.3109 H   0  0  0  0  0  0  0  0  0  0  0  0
   -9.6720  -23.2064   28.9358 H   0  0  0  0  0  0  0  0  0  0  0  0
  -11.4508  -22.3841   27.6009 H   0  0  0  0  0  0  0  0  0  0  0  0
  -11.3906  -23.7657   26.5008 H   0  0  0  0  0  0  0  0  0  0  0  0
  -13.2566  -24.1492   28.0275 H   0  0  0  0  0  0  0  0  0  0  0  0
  -13.9763  -20.6196   31.9380 H   0  0  0  0  0  0  0  0  0  0  0  0
  -13.0646  -20.4121   34.2477 H   0  0  0  0  0  0  0  0  0  0  0  0
  -11.3063  -21.9270   35.0285 H   0  0  0  0  0  0  0  0  0  0  0  0
  -10.3064  -23.6358   33.5024 H   0  0  0  0  0  0  0  0  0  0  0  0
  -10.9384  -24.7924   31.0292 H   0  0  0  0  0  0  0  0  0  0  0  0
  -12.4993  -26.1002   27.4523 H   0  0  0  0  0  0  0  0  0  0  0  0
  -12.1775  -26.2843   29.1404 H   0  0  0  0  0  0  0  0  0  0  0  0
  1  2  2  0
  2  3  1  0
  3  4  2  0
  4  5  1  0
  5  6  1  0
  6  7  2  0
  7  8  1  0
  8  9  2  0
  9 10  1  0
  2 11  1  0
 11 12  1  0
 12 13  1  0
 13 14  1  0
 14 15  1  0
 15 16  1  0
 16 17  2  0
 17 18  1  0
 18 19  2  0
 19 20  1  0
 20 21  2  0
 21 22  1  0
 22 23  2  0
 23 24  1  0
 15 25  1  0
 10  3  1  0
 25 11  1  0
 10  6  1  0
 24 16  1  0
 23 18  1  0
  4 26  1  0
  8 27  1  0
  9 28  1  0
 12 29  1  0
 12 30  1  0
 13 31  1  0
 13 32  1  0
 14 33  1  0
 14 34  1  0
 15 35  1  0
 19 36  1  0
 20 37  1  0
 21 38  1  0
 22 39  1  0
 24 40  1  0
 25 41  1  0
 25 42  1  0
M  END
>  <Energy>  (1328) 
577.54171990204668

>  <compound_id>  (1328) 
60336

>  <target_id>  (1328) 
1

>  <reference_id>  (1328) 
52

>  <inspiration_ids>  (1328) 
[52, 45]

>  <energy_score>  (1328) 
505.68959595297486

>  <distance_score>  (1328) 
2.4429030235316387

>  <path>  (1328) 
/opt/xchem-fragalysis-2/maxwin/BulkDock/SCRATCH/511020/C60336-P52/C60336-P52.minimised.mol

>  <scratch_subdir>  (1328) 
/opt/xchem-fragalysis-2/maxwin/BulkDock/SCRATCH/511020/C60336-P52

>  <fragmenstein_runtime>  (1328) 
9.477977514266968

>  <fragmenstein_outcome>  (1328) 
too moved

>  <fragmenstein_mode>  (1328) 
expansion

>  <fragmenstein_error>  (1328) 


$$$$
C60336-P45
     RDKit          3D

 42 46  0  0  0  0  0  0  0  0999 V2000
  -10.2535  -27.7134   27.9929 O   0  0  0  0  0  0  0  0  0  0  0  0
   -9.2478  -27.1014   28.2788 C   0  0  0  0  0  0  0  0  0  0  0  0
   -7.8507  -27.7506   27.6306 C   0  0  0  0  0  0  0  0  0  0  0  0
   -8.3894  -27.5657   26.4071 C   0  0  0  0  0  0  0  0  0  0  0  0
   -7.9929  -25.7947   25.9702 S   0  0  0  0  0  0  0  0  0  0  0  0
   -6.5294  -25.9480   26.7652 C   0  0  0  0  0  0  0  0  0  0  0  0
   -5.4115  -25.3045   26.7175 N   0  0  0  0  0  0  0  0  0  0  0  0
   -4.5514  -26.2956   27.0671 C   0  0  0  0  0  0  0  0  0  0  0  0
   -5.2319  -27.4568   27.4163 C   0  0  0  0  0  0  0  0  0  0  0  0
   -6.5665  -27.1033   27.4519 N   0  0  0  0  0  0  0  0  0  0  0  0
   -9.0811  -25.8607   28.9912 N   0  0  0  0  0  0  0  0  0  0  0  0
   -9.0848  -24.7974   28.1077 C   0  0  0  0  0  0  0  0  0  0  0  0
   -8.7614  -23.3672   28.0824 C   0  0  0  0  0  0  0  0  0  0  0  0
  -10.1557  -22.8303   28.0494 C   0  0  0  0  0  0  0  0  0  0  0  0
  -10.9495  -23.6424   28.9781 C   0  0  0  0  0  0  0  0  0  0  0  0
  -11.4174  -22.6814   29.9725 C   0  0  0  0  0  0  0  0  0  0  0  0
  -11.2181  -21.4564   30.4370 N   0  0  0  0  0  0  0  0  0  0  0  0
  -11.4534  -21.6152   31.8068 C   0  0  0  0  0  0  0  0  0  0  0  0
  -11.5650  -20.8072   32.9363 C   0  0  0  0  0  0  0  0  0  0  0  0
  -11.9792  -21.4296   34.1146 C   0  0  0  0  0  0  0  0  0  0  0  0
  -11.8447  -22.8140   34.2393 C   0  0  0  0  0  0  0  0  0  0  0  0
  -11.3451  -23.6080   33.2370 C   0  0  0  0  0  0  0  0  0  0  0  0
  -11.4877  -22.9711   32.0362 C   0  0  0  0  0  0  0  0  0  0  0  0
  -12.0745  -23.3454   30.8711 N   0  0  0  0  0  0  0  0  0  0  0  0
  -10.0973  -24.9793   29.7042 C   0  0  0  0  0  0  0  0  0  0  0  0
   -8.1103  -28.2645   25.6202 H   0  0  0  0  0  0  0  0  0  0  0  0
   -3.4834  -26.1314   27.0315 H   0  0  0  0  0  0  0  0  0  0  0  0
   -4.8630  -28.4123   27.7200 H   0  0  0  0  0  0  0  0  0  0  0  0
   -9.7678  -25.0330   27.2755 H   0  0  0  0  0  0  0  0  0  0  0  0
   -8.0255  -24.9544   28.0115 H   0  0  0  0  0  0  0  0  0  0  0  0
   -8.1419  -23.1741   27.2032 H   0  0  0  0  0  0  0  0  0  0  0  0
   -8.0408  -23.0874   28.8302 H   0  0  0  0  0  0  0  0  0  0  0  0
  -10.1878  -21.7561   28.2153 H   0  0  0  0  0  0  0  0  0  0  0  0
  -10.6668  -23.0110   27.0912 H   0  0  0  0  0  0  0  0  0  0  0  0
  -11.8054  -24.0924   28.4504 H   0  0  0  0  0  0  0  0  0  0  0  0
  -11.4158  -19.7417   32.9381 H   0  0  0  0  0  0  0  0  0  0  0  0
  -12.2464  -20.8289   34.9786 H   0  0  0  0  0  0  0  0  0  0  0  0
  -12.0414  -23.3581   35.1473 H   0  0  0  0  0  0  0  0  0  0  0  0
  -11.2822  -24.6773   33.3857 H   0  0  0  0  0  0  0  0  0  0  0  0
  -12.6420  -24.1457   30.6122 H   0  0  0  0  0  0  0  0  0  0  0  0
  -10.8929  -25.7036   29.8924 H   0  0  0  0  0  0  0  0  0  0  0  0
   -9.6690  -24.7255   30.6798 H   0  0  0  0  0  0  0  0  0  0  0  0
  1  2  2  0
  2  3  1  0
  3  4  2  0
  4  5  1  0
  5  6  1  0
  6  7  2  0
  7  8  1  0
  8  9  2  0
  9 10  1  0
  2 11  1  0
 11 12  1  0
 12 13  1  0
 13 14  1  0
 14 15  1  0
 15 16  1  0
 16 17  2  0
 17 18  1  0
 18 19  2  0
 19 20  1  0
 20 21  2  0
 21 22  1  0
 22 23  2  0
 23 24  1  0
 15 25  1  0
 10  3  1  0
 25 11  1  0
 10  6  1  0
 24 16  1  0
 23 18  1  0
  4 26  1  0
  8 27  1  0
  9 28  1  0
 12 29  1  0
 12 30  1  0
 13 31  1  0
 13 32  1  0
 14 33  1  0
 14 34  1  0
 15 35  1  0
 19 36  1  0
 20 37  1  0
 21 38  1  0
 22 39  1  0
 24 40  1  0
 25 41  1  0
 25 42  1  0
M  END
>  <Energy>  (1329) 
376.59100634404086

>  <compound_id>  (1329) 
60336

>  <target_id>  (1329) 
1

>  <reference_id>  (1329) 
45

>  <inspiration_ids>  (1329) 
[52, 45]

>  <energy_score>  (1329) 
304.7388823949683

>  <distance_score>  (1329) 
2.071640187594738

>  <path>  (1329) 
/opt/xchem-fragalysis-2/maxwin/BulkDock/SCRATCH/511020/C60336-P45/C60336-P45.minimised.mol

>  <scratch_subdir>  (1329) 
/opt/xchem-fragalysis-2/maxwin/BulkDock/SCRATCH/511020/C60336-P45

>  <fragmenstein_runtime>  (1329) 
8.147571563720703

>  <fragmenstein_outcome>  (1329) 
too moved

>  <fragmenstein_mode>  (1329) 
expansion

>  <fragmenstein_error>  (1329) 


$$$$
C60338-P52
     RDKit          3D

 32 35  0  0  0  0  0  0  0  0999 V2000
  -12.8511  -27.2409   29.4135 Cl  0  0  0  0  0  0  0  0  0  0  0  0
  -11.3192  -26.4227   29.4815 C   0  0  0  0  0  0  0  0  0  0  0  0
  -10.6669  -26.0786   28.3500 C   0  0  0  0  0  0  0  0  0  0  0  0
  -11.3523  -25.2653   27.3684 C   0  0  0  0  0  0  0  0  0  0  0  0
  -12.2687  -25.7698   26.5225 C   0  0  0  0  0  0  0  0  0  0  0  0
  -13.0699  -24.8629   25.7347 C   0  0  0  0  0  0  0  0  0  0  0  0
  -12.8764  -23.5327   25.7835 C   0  0  0  0  0  0  0  0  0  0  0  0
  -11.9446  -22.9830   26.7014 C   0  0  0  0  0  0  0  0  0  0  0  0
  -11.7519  -21.7468   27.1010 N   0  0  0  0  0  0  0  0  0  0  0  0
  -10.8436  -21.8170   28.1136 C   0  0  0  0  0  0  0  0  0  0  0  0
  -10.3915  -23.1004   28.2606 C   0  0  0  0  0  0  0  0  0  0  0  0
  -11.1858  -23.8684   27.4372 N   0  0  0  0  0  0  0  0  0  0  0  0
  -11.2323  -25.4515   30.5103 C   0  0  0  0  0  0  0  0  0  0  0  0
  -12.1078  -24.5053   30.7387 N   0  0  0  0  0  0  0  0  0  0  0  0
  -11.5133  -23.6268   31.5830 C   0  0  0  0  0  0  0  0  0  0  0  0
  -12.0262  -22.4382   32.0901 C   0  0  0  0  0  0  0  0  0  0  0  0
  -11.2087  -21.7020   32.9230 C   0  0  0  0  0  0  0  0  0  0  0  0
  -11.8425  -20.2399   33.5611 Cl  0  0  0  0  0  0  0  0  0  0  0  0
   -9.9091  -22.1320   33.2057 C   0  0  0  0  0  0  0  0  0  0  0  0
   -9.3906  -23.3405   32.7325 C   0  0  0  0  0  0  0  0  0  0  0  0
  -10.2408  -24.0628   31.9169 C   0  0  0  0  0  0  0  0  0  0  0  0
  -10.0933  -25.2492   31.2467 N   0  0  0  0  0  0  0  0  0  0  0  0
   -9.6650  -25.6545   28.4643 H   0  0  0  0  0  0  0  0  0  0  0  0
  -12.5042  -26.8259   26.4653 H   0  0  0  0  0  0  0  0  0  0  0  0
  -13.8374  -25.2796   25.0900 H   0  0  0  0  0  0  0  0  0  0  0  0
  -13.4701  -22.8489   25.1846 H   0  0  0  0  0  0  0  0  0  0  0  0
  -10.5318  -20.9325   28.6527 H   0  0  0  0  0  0  0  0  0  0  0  0
   -9.6590  -23.5071   28.9350 H   0  0  0  0  0  0  0  0  0  0  0  0
  -13.0308  -22.1176   31.8382 H   0  0  0  0  0  0  0  0  0  0  0  0
   -9.2403  -21.5020   33.7702 H   0  0  0  0  0  0  0  0  0  0  0  0
   -8.3784  -23.6561   32.9589 H   0  0  0  0  0  0  0  0  0  0  0  0
   -9.2510  -25.8061   31.2347 H   0  0  0  0  0  0  0  0  0  0  0  0
  1  2  1  0
  2  3  2  3
  3  4  1  0
  4  5  2  0
  5  6  1  0
  6  7  2  0
  7  8  1  0
  8  9  2  0
  9 10  1  0
 10 11  2  0
 11 12  1  0
  2 13  1  0
 13 14  2  0
 14 15  1  0
 15 16  2  0
 16 17  1  0
 17 18  1  0
 17 19  2  0
 19 20  1  0
 20 21  2  0
 21 22  1  0
 12  4  1  0
 22 13  1  0
 12  8  1  0
 21 15  1  0
  3 23  1  0
  5 24  1  0
  6 25  1  0
  7 26  1  0
 10 27  1  0
 11 28  1  0
 16 29  1  0
 19 30  1  0
 20 31  1  0
 22 32  1  0
M  END
>  <Energy>  (1330) 
89.143266818942607

>  <compound_id>  (1330) 
60338

>  <target_id>  (1330) 
1

>  <reference_id>  (1330) 
52

>  <inspiration_ids>  (1330) 
[52, 45]

>  <energy_score>  (1330) 
12.47026952925188

>  <distance_score>  (1330) 
4.689383054477258

>  <path>  (1330) 
/opt/xchem-fragalysis-2/maxwin/BulkDock/SCRATCH/511020/C60338-P52/C60338-P52.minimised.mol

>  <scratch_subdir>  (1330) 
/opt/xchem-fragalysis-2/maxwin/BulkDock/SCRATCH/511020/C60338-P52

>  <fragmenstein_runtime>  (1330) 
6.894473314285278

>  <fragmenstein_outcome>  (1330) 
too moved

>  <fragmenstein_mode>  (1330) 
expansion

>  <fragmenstein_error>  (1330) 


$$$$
C60338-P45
     RDKit          3D

 32 35  0  0  0  0  0  0  0  0999 V2000
  -12.1236  -23.1822   27.0427 Cl  0  0  0  0  0  0  0  0  0  0  0  0
  -10.9345  -22.8518   28.2593 C   0  0  0  0  0  0  0  0  0  0  0  0
   -9.8314  -23.6462   28.1264 C   0  0  0  0  0  0  0  0  0  0  0  0
   -9.6499  -25.1973   28.0297 C   0  0  0  0  0  0  0  0  0  0  0  0
  -10.5913  -25.9433   27.3907 C   0  0  0  0  0  0  0  0  0  0  0  0
  -10.6703  -25.5479   25.9823 C   0  0  0  0  0  0  0  0  0  0  0  0
   -9.6074  -24.8981   25.4492 C   0  0  0  0  0  0  0  0  0  0  0  0
   -8.3413  -24.8794   26.1534 C   0  0  0  0  0  0  0  0  0  0  0  0
   -7.0954  -24.4566   26.0582 N   0  0  0  0  0  0  0  0  0  0  0  0
   -6.4220  -25.4048   26.8119 C   0  0  0  0  0  0  0  0  0  0  0  0
   -7.3547  -26.2161   27.4279 C   0  0  0  0  0  0  0  0  0  0  0  0
   -8.4211  -25.3822   27.4155 N   0  0  0  0  0  0  0  0  0  0  0  0
  -11.5453  -22.9400   29.5548 C   0  0  0  0  0  0  0  0  0  0  0  0
  -11.5145  -22.3457   30.7548 N   0  0  0  0  0  0  0  0  0  0  0  0
  -11.0246  -23.3627   31.5871 C   0  0  0  0  0  0  0  0  0  0  0  0
  -10.8412  -23.6126   32.9476 C   0  0  0  0  0  0  0  0  0  0  0  0
  -10.0973  -24.7800   33.2471 C   0  0  0  0  0  0  0  0  0  0  0  0
  -10.3557  -25.6741   34.6820 Cl  0  0  0  0  0  0  0  0  0  0  0  0
   -9.3710  -25.4975   32.3074 C   0  0  0  0  0  0  0  0  0  0  0  0
   -9.7586  -25.4272   31.0029 C   0  0  0  0  0  0  0  0  0  0  0  0
  -10.6518  -24.4007   30.7493 C   0  0  0  0  0  0  0  0  0  0  0  0
  -11.6932  -24.2577   29.8387 N   0  0  0  0  0  0  0  0  0  0  0  0
   -8.8754  -23.1700   28.3532 H   0  0  0  0  0  0  0  0  0  0  0  0
  -10.5625  -27.0347   27.4599 H   0  0  0  0  0  0  0  0  0  0  0  0
  -11.6244  -25.6373   25.4743 H   0  0  0  0  0  0  0  0  0  0  0  0
   -9.7029  -24.4406   24.4820 H   0  0  0  0  0  0  0  0  0  0  0  0
   -5.3460  -25.5214   26.7500 H   0  0  0  0  0  0  0  0  0  0  0  0
   -7.3430  -27.1762   27.9035 H   0  0  0  0  0  0  0  0  0  0  0  0
  -11.3616  -23.0386   33.7031 H   0  0  0  0  0  0  0  0  0  0  0  0
   -8.7169  -26.3038   32.5964 H   0  0  0  0  0  0  0  0  0  0  0  0
   -9.5372  -26.2339   30.3211 H   0  0  0  0  0  0  0  0  0  0  0  0
  -11.9586  -24.9543   29.1594 H   0  0  0  0  0  0  0  0  0  0  0  0
  1  2  1  0
  2  3  2  3
  3  4  1  0
  4  5  2  0
  5  6  1  0
  6  7  2  0
  7  8  1  0
  8  9  2  0
  9 10  1  0
 10 11  2  0
 11 12  1  0
  2 13  1  0
 13 14  2  0
 14 15  1  0
 15 16  2  0
 16 17  1  0
 17 18  1  0
 17 19  2  0
 19 20  1  0
 20 21  2  0
 21 22  1  0
 12  4  1  0
 22 13  1  0
 12  8  1  0
 21 15  1  0
  3 23  1  0
  5 24  1  0
  6 25  1  0
  7 26  1  0
 10 27  1  0
 11 28  1  0
 16 29  1  0
 19 30  1  0
 20 31  1  0
 22 32  1  0
M  END
>  <Energy>  (1331) 
291.76895320442304

>  <compound_id>  (1331) 
60338

>  <target_id>  (1331) 
1

>  <reference_id>  (1331) 
45

>  <inspiration_ids>  (1331) 
[52, 45]

>  <energy_score>  (1331) 
215.09595591473106

>  <distance_score>  (1331) 
2.8202791696226432

>  <path>  (1331) 
/opt/xchem-fragalysis-2/maxwin/BulkDock/SCRATCH/511020/C60338-P45/C60338-P45.minimised.mol

>  <scratch_subdir>  (1331) 
/opt/xchem-fragalysis-2/maxwin/BulkDock/SCRATCH/511020/C60338-P45

>  <fragmenstein_runtime>  (1331) 
3.9368226528167725

>  <fragmenstein_outcome>  (1331) 
too moved

>  <fragmenstein_mode>  (1331) 
expansion

>  <fragmenstein_error>  (1331) 


$$$$
C60339-P52
     RDKit          3D

 33 36  0  0  0  0  0  0  0  0999 V2000
   -9.3453  -25.4826   32.1697 O   0  0  0  0  0  0  0  0  0  0  0  0
   -9.5701  -24.8061   31.2531 C   0  0  0  0  0  0  0  0  0  0  0  0
   -9.0880  -24.9542   29.8385 C   0  0  0  0  0  0  0  0  0  0  0  0
  -10.1622  -25.4290   28.9526 C   0  0  0  0  0  0  0  0  0  0  0  0
  -11.0359  -26.4389   29.1296 C   0  0  0  0  0  0  0  0  0  0  0  0
  -12.0573  -26.7475   27.7476 S   0  0  0  0  0  0  0  0  0  0  0  0
  -11.3044  -25.4085   26.9685 C   0  0  0  0  0  0  0  0  0  0  0  0
  -11.5084  -24.7734   25.8610 N   0  0  0  0  0  0  0  0  0  0  0  0
  -10.8514  -23.5884   26.0615 C   0  0  0  0  0  0  0  0  0  0  0  0
  -10.1651  -23.5665   27.2588 C   0  0  0  0  0  0  0  0  0  0  0  0
  -10.4186  -24.7914   27.7804 N   0  0  0  0  0  0  0  0  0  0  0  0
  -10.3701  -23.4962   31.1527 N   0  0  0  0  0  0  0  0  0  0  0  0
  -11.0945  -22.8366   32.0836 C   0  0  0  0  0  0  0  0  0  0  0  0
  -10.8307  -22.9349   33.4441 C   0  0  0  0  0  0  0  0  0  0  0  0
  -11.5898  -22.1633   34.3134 C   0  0  0  0  0  0  0  0  0  0  0  0
  -12.6343  -21.3926   33.7898 C   0  0  0  0  0  0  0  0  0  0  0  0
  -13.5262  -20.5652   34.4142 N   0  0  0  0  0  0  0  0  0  0  0  0
  -14.3889  -20.2472   33.4867 C   0  0  0  0  0  0  0  0  0  0  0  0
  -15.8046  -19.2936   33.6916 S   0  0  0  0  0  0  0  0  0  0  0  0
  -14.0730  -20.7711   32.2778 N   0  0  0  0  0  0  0  0  0  0  0  0
  -12.8858  -21.4203   32.4266 C   0  0  0  0  0  0  0  0  0  0  0  0
  -12.0990  -22.0701   31.5175 C   0  0  0  0  0  0  0  0  0  0  0  0
   -8.2501  -25.6148   29.7358 H   0  0  0  0  0  0  0  0  0  0  0  0
   -8.6803  -23.9861   29.5384 H   0  0  0  0  0  0  0  0  0  0  0  0
  -11.1481  -27.0397   30.0160 H   0  0  0  0  0  0  0  0  0  0  0  0
  -10.9723  -22.8126   25.3230 H   0  0  0  0  0  0  0  0  0  0  0  0
   -9.6003  -22.7990   27.7613 H   0  0  0  0  0  0  0  0  0  0  0  0
  -10.2975  -23.1272   30.2146 H   0  0  0  0  0  0  0  0  0  0  0  0
  -10.0249  -23.5546   33.8247 H   0  0  0  0  0  0  0  0  0  0  0  0
  -11.4134  -22.1708   35.3770 H   0  0  0  0  0  0  0  0  0  0  0  0
  -15.7828  -19.3011   35.0325 H   0  0  0  0  0  0  0  0  0  0  0  0
  -14.6661  -20.7605   31.4619 H   0  0  0  0  0  0  0  0  0  0  0  0
  -12.3191  -22.0606   30.4581 H   0  0  0  0  0  0  0  0  0  0  0  0
  1  2  2  0
  2  3  1  0
  3  4  1  0
  4  5  2  0
  5  6  1  0
  6  7  1  0
  7  8  2  0
  8  9  1  0
  9 10  2  0
 10 11  1  0
  2 12  1  0
 12 13  1  0
 13 14  2  0
 14 15  1  0
 15 16  2  0
 16 17  1  0
 17 18  2  0
 18 19  1  0
 18 20  1  0
 20 21  1  0
 21 22  2  0
 11  4  1  0
 22 13  1  0
 11  7  1  0
 21 16  1  0
  3 23  1  0
  3 24  1  0
  5 25  1  0
  9 26  1  0
 10 27  1  0
 12 28  1  0
 14 29  1  0
 15 30  1  0
 19 31  1  0
 20 32  1  0
 22 33  1  0
M  END
>  <Energy>  (1332) 
45.776807638727959

>  <compound_id>  (1332) 
60339

>  <target_id>  (1332) 
1

>  <reference_id>  (1332) 
52

>  <inspiration_ids>  (1332) 
[52, 45]

>  <energy_score>  (1332) 
-14.668721043315031

>  <distance_score>  (1332) 
3.8262563846749496

>  <path>  (1332) 
/opt/xchem-fragalysis-2/maxwin/BulkDock/SCRATCH/511020/C60339-P52/C60339-P52.minimised.mol

>  <scratch_subdir>  (1332) 
/opt/xchem-fragalysis-2/maxwin/BulkDock/SCRATCH/511020/C60339-P52

>  <fragmenstein_runtime>  (1332) 
6.415684461593628

>  <fragmenstein_outcome>  (1332) 
too moved

>  <fragmenstein_mode>  (1332) 
expansion

>  <fragmenstein_error>  (1332) 


$$$$
C60339-P45
     RDKit          3D

 33 36  0  0  0  0  0  0  0  0999 V2000
  -11.2679  -27.8149   29.4053 O   0  0  0  0  0  0  0  0  0  0  0  0
  -10.2626  -27.2987   29.0968 C   0  0  0  0  0  0  0  0  0  0  0  0
   -9.2948  -27.9384   28.0333 C   0  0  0  0  0  0  0  0  0  0  0  0
   -9.1183  -26.9968   26.9345 C   0  0  0  0  0  0  0  0  0  0  0  0
  -10.2512  -26.4645   26.4522 C   0  0  0  0  0  0  0  0  0  0  0  0
  -10.0742  -24.7746   26.1705 S   0  0  0  0  0  0  0  0  0  0  0  0
   -8.3780  -24.8749   26.5852 C   0  0  0  0  0  0  0  0  0  0  0  0
   -7.4248  -24.0177   26.8286 N   0  0  0  0  0  0  0  0  0  0  0  0
   -6.3402  -24.8142   27.1134 C   0  0  0  0  0  0  0  0  0  0  0  0
   -6.6924  -26.1533   27.1052 C   0  0  0  0  0  0  0  0  0  0  0  0
   -8.0301  -26.1517   26.8555 N   0  0  0  0  0  0  0  0  0  0  0  0
   -9.6275  -25.9504   29.5743 N   0  0  0  0  0  0  0  0  0  0  0  0
  -10.0369  -25.0644   30.5459 C   0  0  0  0  0  0  0  0  0  0  0  0
   -9.5799  -25.2713   31.8495 C   0  0  0  0  0  0  0  0  0  0  0  0
  -10.0346  -24.4637   32.8885 C   0  0  0  0  0  0  0  0  0  0  0  0
  -10.8999  -23.4004   32.6051 C   0  0  0  0  0  0  0  0  0  0  0  0
  -11.5137  -22.5298   33.4560 N   0  0  0  0  0  0  0  0  0  0  0  0
  -12.3606  -21.8717   32.7168 C   0  0  0  0  0  0  0  0  0  0  0  0
  -13.8624  -21.2889   33.3484 S   0  0  0  0  0  0  0  0  0  0  0  0
  -12.1456  -22.0859   31.3762 N   0  0  0  0  0  0  0  0  0  0  0  0
  -11.2960  -23.1716   31.2840 C   0  0  0  0  0  0  0  0  0  0  0  0
  -10.9187  -24.0110   30.2188 C   0  0  0  0  0  0  0  0  0  0  0  0
   -9.6977  -28.8873   27.6668 H   0  0  0  0  0  0  0  0  0  0  0  0
   -8.3380  -28.0817   28.4998 H   0  0  0  0  0  0  0  0  0  0  0  0
  -11.2430  -26.8941   26.5513 H   0  0  0  0  0  0  0  0  0  0  0  0
   -5.3607  -24.3908   27.3008 H   0  0  0  0  0  0  0  0  0  0  0  0
   -6.1171  -27.0586   27.2375 H   0  0  0  0  0  0  0  0  0  0  0  0
   -8.7122  -25.8455   29.1664 H   0  0  0  0  0  0  0  0  0  0  0  0
   -8.9326  -26.1126   32.0861 H   0  0  0  0  0  0  0  0  0  0  0  0
   -9.7670  -24.7366   33.8943 H   0  0  0  0  0  0  0  0  0  0  0  0
  -14.0045  -22.2776   34.2489 H   0  0  0  0  0  0  0  0  0  0  0  0
  -12.7634  -21.7977   30.6361 H   0  0  0  0  0  0  0  0  0  0  0  0
  -11.2844  -23.8555   29.2094 H   0  0  0  0  0  0  0  0  0  0  0  0
  1  2  2  0
  2  3  1  0
  3  4  1  0
  4  5  2  0
  5  6  1  0
  6  7  1  0
  7  8  2  0
  8  9  1  0
  9 10  2  0
 10 11  1  0
  2 12  1  0
 12 13  1  0
 13 14  2  0
 14 15  1  0
 15 16  2  0
 16 17  1  0
 17 18  2  0
 18 19  1  0
 18 20  1  0
 20 21  1  0
 21 22  2  0
 11  4  1  0
 22 13  1  0
 11  7  1  0
 21 16  1  0
  3 23  1  0
  3 24  1  0
  5 25  1  0
  9 26  1  0
 10 27  1  0
 12 28  1  0
 14 29  1  0
 15 30  1  0
 19 31  1  0
 20 32  1  0
 22 33  1  0
M  END
>  <Energy>  (1333) 
82.247353881945855

>  <compound_id>  (1333) 
60339

>  <target_id>  (1333) 
1

>  <reference_id>  (1333) 
45

>  <inspiration_ids>  (1333) 
[52, 45]

>  <energy_score>  (1333) 
21.801825199902055

>  <distance_score>  (1333) 
2.365603198233837

>  <path>  (1333) 
/opt/xchem-fragalysis-2/maxwin/BulkDock/SCRATCH/511020/C60339-P45/C60339-P45.minimised.mol

>  <scratch_subdir>  (1333) 
/opt/xchem-fragalysis-2/maxwin/BulkDock/SCRATCH/511020/C60339-P45

>  <fragmenstein_runtime>  (1333) 
5.413496732711792

>  <fragmenstein_outcome>  (1333) 
too moved

>  <fragmenstein_mode>  (1333) 
expansion

>  <fragmenstein_error>  (1333) 


$$$$
C60340-P52
     RDKit          3D

 36 39  0  0  0  0  0  0  0  0999 V2000
  -11.0494  -22.9633   30.1429 C   0  0  0  0  0  0  0  0  0  0  0  0
  -10.2485  -22.6978   28.8784 C   0  0  0  0  0  0  0  0  0  0  0  0
  -10.6182  -23.5543   27.7356 N   0  0  0  0  0  0  0  0  0  0  0  0
  -12.0467  -23.1558   26.9687 S   0  0  0  0  0  0  0  0  0  0  0  0
  -12.5660  -22.0840   27.7676 O   0  0  0  0  0  0  0  0  0  0  0  0
  -11.7391  -23.0717   25.5637 O   0  0  0  0  0  0  0  0  0  0  0  0
  -13.0639  -24.6033   27.2128 C   0  0  0  0  0  0  0  0  0  0  0  0
  -13.6012  -25.2587   26.0987 C   0  0  0  0  0  0  0  0  0  0  0  0
  -13.8897  -26.6297   26.1576 C   0  0  0  0  0  0  0  0  0  0  0  0
  -13.4592  -27.3068   27.3049 C   0  0  0  0  0  0  0  0  0  0  0  0
  -13.0583  -28.6089   27.4909 N   0  0  0  0  0  0  0  0  0  0  0  0
  -12.2083  -28.4633   28.4954 C   0  0  0  0  0  0  0  0  0  0  0  0
  -10.8073  -28.4891   28.3889 C   0  0  0  0  0  0  0  0  0  0  0  0
  -10.1122  -29.6219   28.0917 C   0  0  0  0  0  0  0  0  0  0  0  0
   -8.9752  -29.3991   27.3303 N   0  0  0  0  0  0  0  0  0  0  0  0
   -8.3885  -30.1433   26.3511 C   0  0  0  0  0  0  0  0  0  0  0  0
   -7.5869  -29.2446   25.6687 C   0  0  0  0  0  0  0  0  0  0  0  0
   -7.5690  -28.0399   26.3245 N   0  0  0  0  0  0  0  0  0  0  0  0
   -8.6210  -28.0956   27.0580 C   0  0  0  0  0  0  0  0  0  0  0  0
  -10.0468  -26.8515   27.4117 S   0  0  0  0  0  0  0  0  0  0  0  0
  -12.7210  -27.5078   29.3532 N   0  0  0  0  0  0  0  0  0  0  0  0
  -13.1871  -26.5636   28.4541 C   0  0  0  0  0  0  0  0  0  0  0  0
  -13.0773  -25.1837   28.4795 C   0  0  0  0  0  0  0  0  0  0  0  0
  -10.9561  -24.0114   30.4449 H   0  0  0  0  0  0  0  0  0  0  0  0
  -12.1080  -22.7153   30.0443 H   0  0  0  0  0  0  0  0  0  0  0  0
  -10.6755  -22.3615   30.9762 H   0  0  0  0  0  0  0  0  0  0  0  0
  -10.2620  -21.6400   28.5968 H   0  0  0  0  0  0  0  0  0  0  0  0
   -9.2075  -22.9565   29.0862 H   0  0  0  0  0  0  0  0  0  0  0  0
   -9.8986  -23.5606   27.0106 H   0  0  0  0  0  0  0  0  0  0  0  0
  -13.6852  -24.7388   25.1466 H   0  0  0  0  0  0  0  0  0  0  0  0
  -14.1897  -27.1592   25.2667 H   0  0  0  0  0  0  0  0  0  0  0  0
  -10.5388  -30.6106   28.0963 H   0  0  0  0  0  0  0  0  0  0  0  0
   -8.5923  -31.1900   26.1855 H   0  0  0  0  0  0  0  0  0  0  0  0
   -6.9370  -29.4556   24.8253 H   0  0  0  0  0  0  0  0  0  0  0  0
  -12.2507  -27.2316   30.1993 H   0  0  0  0  0  0  0  0  0  0  0  0
  -12.7001  -24.6745   29.3479 H   0  0  0  0  0  0  0  0  0  0  0  0
  1  2  1  0
  2  3  1  0
  3  4  1  0
  4  5  2  0
  4  6  2  0
  4  7  1  0
  7  8  2  0
  8  9  1  0
  9 10  2  0
 10 11  1  0
 11 12  2  0
 12 13  1  0
 13 14  2  0
 14 15  1  0
 15 16  1  0
 16 17  2  0
 17 18  1  0
 18 19  2  0
 19 20  1  0
 12 21  1  0
 21 22  1  0
 22 23  2  0
 23  7  1  0
 22 10  1  0
 20 13  1  0
 19 15  1  0
  1 24  1  0
  1 25  1  0
  1 26  1  0
  2 27  1  0
  2 28  1  0
  3 29  1  0
  8 30  1  0
  9 31  1  0
 14 32  1  0
 16 33  1  0
 17 34  1  0
 21 35  1  0
 23 36  1  0
M  END
>  <Energy>  (1334) 
68.926445352056845

>  <compound_id>  (1334) 
60340

>  <target_id>  (1334) 
1

>  <reference_id>  (1334) 
52

>  <inspiration_ids>  (1334) 
[52, 45]

>  <energy_score>  (1334) 
41.66269353267495

>  <distance_score>  (1334) 
3.5780300937587994

>  <path>  (1334) 
/opt/xchem-fragalysis-2/maxwin/BulkDock/SCRATCH/511020/C60340-P52/C60340-P52.minimised.mol

>  <scratch_subdir>  (1334) 
/opt/xchem-fragalysis-2/maxwin/BulkDock/SCRATCH/511020/C60340-P52

>  <fragmenstein_runtime>  (1334) 
8.05430269241333

>  <fragmenstein_outcome>  (1334) 
too moved

>  <fragmenstein_mode>  (1334) 
expansion

>  <fragmenstein_error>  (1334) 


$$$$
C60340-P45
     RDKit          3D

 36 39  0  0  0  0  0  0  0  0999 V2000
  -11.7786  -22.5779   29.9209 C   0  0  0  0  0  0  0  0  0  0  0  0
  -11.2810  -22.4904   28.4940 C   0  0  0  0  0  0  0  0  0  0  0  0
  -10.9441  -23.8395   28.0177 N   0  0  0  0  0  0  0  0  0  0  0  0
  -11.6020  -24.3518   26.5550 S   0  0  0  0  0  0  0  0  0  0  0  0
  -12.8284  -23.6848   26.2928 O   0  0  0  0  0  0  0  0  0  0  0  0
  -10.5542  -24.3832   25.5682 O   0  0  0  0  0  0  0  0  0  0  0  0
  -12.0153  -26.0817   26.8527 C   0  0  0  0  0  0  0  0  0  0  0  0
  -12.1799  -26.5490   28.1645 C   0  0  0  0  0  0  0  0  0  0  0  0
  -11.6816  -27.8157   28.5156 C   0  0  0  0  0  0  0  0  0  0  0  0
  -10.8453  -28.4103   27.5584 C   0  0  0  0  0  0  0  0  0  0  0  0
   -9.7447  -29.2127   27.6915 N   0  0  0  0  0  0  0  0  0  0  0  0
   -8.9191  -28.7660   26.7477 C   0  0  0  0  0  0  0  0  0  0  0  0
   -7.9485  -27.7193   26.8584 C   0  0  0  0  0  0  0  0  0  0  0  0
   -6.6253  -27.7134   26.6265 C   0  0  0  0  0  0  0  0  0  0  0  0
   -6.0964  -26.4586   26.8912 N   0  0  0  0  0  0  0  0  0  0  0  0
   -4.8732  -25.8772   26.9977 C   0  0  0  0  0  0  0  0  0  0  0  0
   -5.1341  -24.6249   27.5329 C   0  0  0  0  0  0  0  0  0  0  0  0
   -6.4709  -24.3721   27.6638 N   0  0  0  0  0  0  0  0  0  0  0  0
   -6.9848  -25.4966   27.2692 C   0  0  0  0  0  0  0  0  0  0  0  0
   -8.5450  -26.1317   27.4454 S   0  0  0  0  0  0  0  0  0  0  0  0
   -9.8089  -28.6665   25.6993 N   0  0  0  0  0  0  0  0  0  0  0  0
  -10.8830  -27.9779   26.2493 C   0  0  0  0  0  0  0  0  0  0  0  0
  -11.6465  -26.9217   25.7964 C   0  0  0  0  0  0  0  0  0  0  0  0
  -11.1328  -23.1964   30.5493 H   0  0  0  0  0  0  0  0  0  0  0  0
  -12.7676  -23.0278   29.9625 H   0  0  0  0  0  0  0  0  0  0  0  0
  -11.8431  -21.5832   30.3666 H   0  0  0  0  0  0  0  0  0  0  0  0
  -12.0209  -21.9993   27.8734 H   0  0  0  0  0  0  0  0  0  0  0  0
  -10.3713  -21.8934   28.4634 H   0  0  0  0  0  0  0  0  0  0  0  0
   -9.9281  -23.9684   27.9505 H   0  0  0  0  0  0  0  0  0  0  0  0
  -12.5313  -25.8772   28.9453 H   0  0  0  0  0  0  0  0  0  0  0  0
  -11.6597  -28.1391   29.5495 H   0  0  0  0  0  0  0  0  0  0  0  0
   -5.9981  -28.5233   26.2949 H   0  0  0  0  0  0  0  0  0  0  0  0
   -3.9529  -26.3920   26.7671 H   0  0  0  0  0  0  0  0  0  0  0  0
   -4.4104  -23.9043   27.8675 H   0  0  0  0  0  0  0  0  0  0  0  0
   -9.5737  -28.6955   24.7262 H   0  0  0  0  0  0  0  0  0  0  0  0
  -11.5097  -26.5236   24.8073 H   0  0  0  0  0  0  0  0  0  0  0  0
  1  2  1  0
  2  3  1  0
  3  4  1  0
  4  5  2  0
  4  6  2  0
  4  7  1  0
  7  8  2  0
  8  9  1  0
  9 10  2  0
 10 11  1  0
 11 12  2  0
 12 13  1  0
 13 14  2  0
 14 15  1  0
 15 16  1  0
 16 17  2  0
 17 18  1  0
 18 19  2  0
 19 20  1  0
 12 21  1  0
 21 22  1  0
 22 23  2  0
 23  7  1  0
 22 10  1  0
 20 13  1  0
 19 15  1  0
  1 24  1  0
  1 25  1  0
  1 26  1  0
  2 27  1  0
  2 28  1  0
  3 29  1  0
  8 30  1  0
  9 31  1  0
 14 32  1  0
 16 33  1  0
 17 34  1  0
 21 35  1  0
 23 36  1  0
M  END
>  <Energy>  (1335) 
54.82935825694409

>  <compound_id>  (1335) 
60340

>  <target_id>  (1335) 
1

>  <reference_id>  (1335) 
45

>  <inspiration_ids>  (1335) 
[52, 45]

>  <energy_score>  (1335) 
27.565606437560177

>  <distance_score>  (1335) 
1.5026063379123253

>  <path>  (1335) 
/opt/xchem-fragalysis-2/maxwin/BulkDock/SCRATCH/511020/C60340-P45/C60340-P45.minimised.mol

>  <scratch_subdir>  (1335) 
/opt/xchem-fragalysis-2/maxwin/BulkDock/SCRATCH/511020/C60340-P45

>  <fragmenstein_runtime>  (1335) 
9.242844581604004

>  <fragmenstein_outcome>  (1335) 
too moved

>  <fragmenstein_mode>  (1335) 
expansion

>  <fragmenstein_error>  (1335) 


$$$$
C60341-P52
     RDKit          3D

 33 37  0  0  0  0  0  0  0  0999 V2000
  -10.3017  -24.2298   32.9770 C   0  0  0  0  0  0  0  0  0  0  0  0
  -11.0461  -24.0368   31.8181 C   0  0  0  0  0  0  0  0  0  0  0  0
  -11.8059  -22.8670   31.5958 C   0  0  0  0  0  0  0  0  0  0  0  0
  -12.3834  -22.5290   30.3177 C   0  0  0  0  0  0  0  0  0  0  0  0
  -12.8418  -23.3492   29.3945 N   0  0  0  0  0  0  0  0  0  0  0  0
  -12.2622  -22.7943   28.2705 C   0  0  0  0  0  0  0  0  0  0  0  0
  -11.4107  -23.7339   27.6200 C   0  0  0  0  0  0  0  0  0  0  0  0
  -11.7970  -24.6074   26.6783 C   0  0  0  0  0  0  0  0  0  0  0  0
  -11.0131  -25.7806   26.4147 C   0  0  0  0  0  0  0  0  0  0  0  0
  -10.0071  -26.1028   27.2439 C   0  0  0  0  0  0  0  0  0  0  0  0
   -9.6435  -25.1985   28.2284 N   0  0  0  0  0  0  0  0  0  0  0  0
   -8.6463  -25.1739   29.1459 C   0  0  0  0  0  0  0  0  0  0  0  0
   -8.7747  -24.0356   29.8713 C   0  0  0  0  0  0  0  0  0  0  0  0
   -9.6428  -23.2315   29.2492 N   0  0  0  0  0  0  0  0  0  0  0  0
  -10.2139  -23.9707   28.3319 C   0  0  0  0  0  0  0  0  0  0  0  0
  -11.9648  -21.4927   28.3999 N   0  0  0  0  0  0  0  0  0  0  0  0
  -11.9924  -21.3189   29.7965 O   0  0  0  0  0  0  0  0  0  0  0  0
  -11.9422  -21.9592   32.6233 C   0  0  0  0  0  0  0  0  0  0  0  0
  -12.6292  -20.7734   32.6804 N   0  0  0  0  0  0  0  0  0  0  0  0
  -12.5436  -20.4134   33.9312 C   0  0  0  0  0  0  0  0  0  0  0  0
  -11.8032  -21.3012   34.6520 N   0  0  0  0  0  0  0  0  0  0  0  0
  -11.3132  -22.2574   33.8172 C   0  0  0  0  0  0  0  0  0  0  0  0
  -10.4442  -23.3338   34.0213 C   0  0  0  0  0  0  0  0  0  0  0  0
   -9.6549  -25.0971   33.0791 H   0  0  0  0  0  0  0  0  0  0  0  0
  -11.0003  -24.7847   31.0322 H   0  0  0  0  0  0  0  0  0  0  0  0
  -12.7693  -24.5199   26.2007 H   0  0  0  0  0  0  0  0  0  0  0  0
  -11.3428  -26.3413   25.5525 H   0  0  0  0  0  0  0  0  0  0  0  0
   -9.3657  -26.9530   27.0918 H   0  0  0  0  0  0  0  0  0  0  0  0
   -7.8355  -25.8527   29.1348 H   0  0  0  0  0  0  0  0  0  0  0  0
   -8.2314  -23.7100   30.7430 H   0  0  0  0  0  0  0  0  0  0  0  0
  -12.9993  -19.5412   34.3784 H   0  0  0  0  0  0  0  0  0  0  0  0
  -11.6482  -21.2750   35.6491 H   0  0  0  0  0  0  0  0  0  0  0  0
   -9.9487  -23.4963   34.9691 H   0  0  0  0  0  0  0  0  0  0  0  0
  1  2  2  0
  2  3  1  0
  3  4  1  0
  4  5  2  0
  5  6  1  0
  6  7  1  0
  7  8  2  0
  8  9  1  0
  9 10  2  0
 10 11  1  0
 11 12  1  0
 12 13  2  0
 13 14  1  0
 14 15  2  0
  6 16  2  0
 16 17  1  0
  3 18  2  0
 18 19  1  0
 19 20  2  0
 20 21  1  0
 21 22  1  0
 22 23  2  0
 23  1  1  0
 17  4  1  0
 22 18  1  0
 15  7  1  0
 15 11  1  0
  1 24  1  0
  2 25  1  0
  8 26  1  0
  9 27  1  0
 10 28  1  0
 12 29  1  0
 13 30  1  0
 20 31  1  0
 21 32  1  0
 23 33  1  0
M  END
>  <Energy>  (1336) 
126.15515473256244

>  <compound_id>  (1336) 
60341

>  <target_id>  (1336) 
1

>  <reference_id>  (1336) 
52

>  <inspiration_ids>  (1336) 
[52, 45]

>  <energy_score>  (1336) 
23.107448551764605

>  <distance_score>  (1336) 
3.8660238374326545

>  <path>  (1336) 
/opt/xchem-fragalysis-2/maxwin/BulkDock/SCRATCH/511020/C60341-P52/C60341-P52.minimised.mol

>  <scratch_subdir>  (1336) 
/opt/xchem-fragalysis-2/maxwin/BulkDock/SCRATCH/511020/C60341-P52

>  <fragmenstein_runtime>  (1336) 
3.4909138679504395

>  <fragmenstein_outcome>  (1336) 
too moved

>  <fragmenstein_mode>  (1336) 
expansion

>  <fragmenstein_error>  (1336) 


$$$$
C60341-P45
     RDKit          3D

 33 37  0  0  0  0  0  0  0  0999 V2000
   -9.9695  -25.4145   33.5293 C   0  0  0  0  0  0  0  0  0  0  0  0
   -9.5627  -25.4487   32.2168 C   0  0  0  0  0  0  0  0  0  0  0  0
  -10.1553  -24.5920   31.2722 C   0  0  0  0  0  0  0  0  0  0  0  0
  -10.1019  -24.9840   29.8665 C   0  0  0  0  0  0  0  0  0  0  0  0
   -9.5113  -26.0480   29.3763 N   0  0  0  0  0  0  0  0  0  0  0  0
   -9.5729  -25.8296   28.0273 C   0  0  0  0  0  0  0  0  0  0  0  0
   -8.4868  -26.4088   27.2915 C   0  0  0  0  0  0  0  0  0  0  0  0
   -8.4211  -27.7233   26.9648 C   0  0  0  0  0  0  0  0  0  0  0  0
   -7.1775  -28.3565   26.5349 C   0  0  0  0  0  0  0  0  0  0  0  0
   -6.0397  -27.6435   26.5721 C   0  0  0  0  0  0  0  0  0  0  0  0
   -6.1029  -26.2987   26.9097 N   0  0  0  0  0  0  0  0  0  0  0  0
   -5.0913  -25.3918   27.0892 C   0  0  0  0  0  0  0  0  0  0  0  0
   -5.7045  -24.2249   27.4788 C   0  0  0  0  0  0  0  0  0  0  0  0
   -7.0585  -24.3685   27.5122 N   0  0  0  0  0  0  0  0  0  0  0  0
   -7.2838  -25.6311   27.1994 C   0  0  0  0  0  0  0  0  0  0  0  0
  -10.3849  -24.8241   27.6669 N   0  0  0  0  0  0  0  0  0  0  0  0
  -10.7410  -24.2471   28.9081 O   0  0  0  0  0  0  0  0  0  0  0  0
  -10.9296  -23.5015   31.7367 C   0  0  0  0  0  0  0  0  0  0  0  0
  -11.6020  -22.4738   31.1079 N   0  0  0  0  0  0  0  0  0  0  0  0
  -12.2488  -21.8544   32.0633 C   0  0  0  0  0  0  0  0  0  0  0  0
  -11.9600  -22.3432   33.2927 N   0  0  0  0  0  0  0  0  0  0  0  0
  -11.2009  -23.4535   33.0919 C   0  0  0  0  0  0  0  0  0  0  0  0
  -10.9022  -24.4916   33.9433 C   0  0  0  0  0  0  0  0  0  0  0  0
   -9.6539  -26.1748   34.2205 H   0  0  0  0  0  0  0  0  0  0  0  0
   -8.9230  -26.2685   31.8975 H   0  0  0  0  0  0  0  0  0  0  0  0
   -9.2760  -28.3783   27.1114 H   0  0  0  0  0  0  0  0  0  0  0  0
   -7.1960  -29.4034   26.2470 H   0  0  0  0  0  0  0  0  0  0  0  0
   -5.0672  -28.0438   26.3164 H   0  0  0  0  0  0  0  0  0  0  0  0
   -4.0545  -25.6683   26.9535 H   0  0  0  0  0  0  0  0  0  0  0  0
   -5.2429  -23.2885   27.7531 H   0  0  0  0  0  0  0  0  0  0  0  0
  -13.0418  -21.1547   31.9652 H   0  0  0  0  0  0  0  0  0  0  0  0
  -12.4355  -22.1155   34.1542 H   0  0  0  0  0  0  0  0  0  0  0  0
  -11.3560  -24.5538   34.9210 H   0  0  0  0  0  0  0  0  0  0  0  0
  1  2  2  0
  2  3  1  0
  3  4  1  0
  4  5  2  0
  5  6  1  0
  6  7  1  0
  7  8  2  0
  8  9  1  0
  9 10  2  0
 10 11  1  0
 11 12  1  0
 12 13  2  0
 13 14  1  0
 14 15  2  0
  6 16  2  0
 16 17  1  0
  3 18  2  0
 18 19  1  0
 19 20  2  0
 20 21  1  0
 21 22  1  0
 22 23  2  0
 23  1  1  0
 17  4  1  0
 22 18  1  0
 15  7  1  0
 15 11  1  0
  1 24  1  0
  2 25  1  0
  8 26  1  0
  9 27  1  0
 10 28  1  0
 12 29  1  0
 13 30  1  0
 20 31  1  0
 21 32  1  0
 23 33  1  0
M  END
>  <Energy>  (1337) 
93.350056925063413

>  <compound_id>  (1337) 
60341

>  <target_id>  (1337) 
1

>  <reference_id>  (1337) 
45

>  <inspiration_ids>  (1337) 
[52, 45]

>  <energy_score>  (1337) 
-9.697649255729345

>  <distance_score>  (1337) 
1.8882144978014295

>  <path>  (1337) 
/opt/xchem-fragalysis-2/maxwin/BulkDock/SCRATCH/511020/C60341-P45/C60341-P45.minimised.mol

>  <scratch_subdir>  (1337) 
/opt/xchem-fragalysis-2/maxwin/BulkDock/SCRATCH/511020/C60341-P45

>  <fragmenstein_runtime>  (1337) 
3.5340421199798584

>  <fragmenstein_outcome>  (1337) 
too moved

>  <fragmenstein_mode>  (1337) 
expansion

>  <fragmenstein_error>  (1337) 


$$$$
C60343-P52
     RDKit          3D

 32 35  0  0  0  0  0  0  0  0999 V2000
  -12.7787  -30.5401   28.8797 O   0  0  0  0  0  0  0  0  0  0  0  0
  -11.9380  -29.8211   28.4755 C   0  0  0  0  0  0  0  0  0  0  0  0
  -11.7397  -28.2474   28.6761 N   0  0  0  0  0  0  0  0  0  0  0  0
  -12.4903  -27.2945   29.4920 C   0  0  0  0  0  0  0  0  0  0  0  0
  -12.0927  -25.8279   29.2614 C   0  0  0  0  0  0  0  0  0  0  0  0
  -12.4096  -25.1057   28.1596 C   0  0  0  0  0  0  0  0  0  0  0  0
  -12.0383  -23.3764   28.2849 S   0  0  0  0  0  0  0  0  0  0  0  0
  -11.4961  -23.6373   29.9002 C   0  0  0  0  0  0  0  0  0  0  0  0
  -11.0501  -22.8584   30.8420 N   0  0  0  0  0  0  0  0  0  0  0  0
  -10.6946  -23.7426   31.8330 C   0  0  0  0  0  0  0  0  0  0  0  0
  -10.9599  -25.0525   31.4639 C   0  0  0  0  0  0  0  0  0  0  0  0
  -11.5340  -24.9663   30.2285 N   0  0  0  0  0  0  0  0  0  0  0  0
  -10.7516  -30.4759   27.7002 C   0  0  0  0  0  0  0  0  0  0  0  0
  -10.6293  -31.6117   26.9088 C   0  0  0  0  0  0  0  0  0  0  0  0
   -9.4505  -31.8625   26.1119 C   0  0  0  0  0  0  0  0  0  0  0  0
   -8.5684  -30.7808   25.9789 C   0  0  0  0  0  0  0  0  0  0  0  0
   -7.6438  -30.3989   25.0456 N   0  0  0  0  0  0  0  0  0  0  0  0
   -7.2266  -29.1437   25.3843 C   0  0  0  0  0  0  0  0  0  0  0  0
   -7.8828  -28.6503   26.4213 N   0  0  0  0  0  0  0  0  0  0  0  0
   -8.6373  -29.7106   26.8465 C   0  0  0  0  0  0  0  0  0  0  0  0
   -9.5762  -29.8004   27.8562 C   0  0  0  0  0  0  0  0  0  0  0  0
  -10.9581  -27.9315   28.1249 H   0  0  0  0  0  0  0  0  0  0  0  0
  -13.5523  -27.4398   29.2659 H   0  0  0  0  0  0  0  0  0  0  0  0
  -12.3473  -27.5796   30.5390 H   0  0  0  0  0  0  0  0  0  0  0  0
  -12.9005  -25.4977   27.2767 H   0  0  0  0  0  0  0  0  0  0  0  0
  -10.2481  -23.3948   32.7570 H   0  0  0  0  0  0  0  0  0  0  0  0
  -10.7723  -25.9915   31.9605 H   0  0  0  0  0  0  0  0  0  0  0  0
  -11.4632  -32.3098   26.8480 H   0  0  0  0  0  0  0  0  0  0  0  0
   -9.4090  -32.7213   25.4481 H   0  0  0  0  0  0  0  0  0  0  0  0
   -7.2770  -30.9544   24.2844 H   0  0  0  0  0  0  0  0  0  0  0  0
   -6.3323  -28.7554   24.9277 H   0  0  0  0  0  0  0  0  0  0  0  0
   -9.6062  -29.2093   28.7124 H   0  0  0  0  0  0  0  0  0  0  0  0
  1  2  2  0
  2  3  1  0
  3  4  1  0
  4  5  1  0
  5  6  2  0
  6  7  1  0
  7  8  1  0
  8  9  2  0
  9 10  1  0
 10 11  2  0
 11 12  1  0
  2 13  1  0
 13 14  2  0
 14 15  1  0
 15 16  2  0
 16 17  1  0
 17 18  1  0
 18 19  2  0
 19 20  1  0
 20 21  2  0
 12  5  1  0
 21 13  1  0
 12  8  1  0
 20 16  1  0
  3 22  1  0
  4 23  1  0
  4 24  1  0
  6 25  1  0
 10 26  1  0
 11 27  1  0
 14 28  1  0
 15 29  1  0
 17 30  1  0
 18 31  1  0
 21 32  1  0
M  END
>  <Energy>  (1338) 
66.799623183769057

>  <compound_id>  (1338) 
60343

>  <target_id>  (1338) 
1

>  <reference_id>  (1338) 
52

>  <inspiration_ids>  (1338) 
[52, 45]

>  <energy_score>  (1338) 
29.514490002469245

>  <distance_score>  (1338) 
3.9237723060743344

>  <path>  (1338) 
/opt/xchem-fragalysis-2/maxwin/BulkDock/SCRATCH/511020/C60343-P52/C60343-P52.minimised.mol

>  <scratch_subdir>  (1338) 
/opt/xchem-fragalysis-2/maxwin/BulkDock/SCRATCH/511020/C60343-P52

>  <fragmenstein_runtime>  (1338) 
3.678361177444458

>  <fragmenstein_outcome>  (1338) 
too moved

>  <fragmenstein_mode>  (1338) 
expansion

>  <fragmenstein_error>  (1338) 


$$$$
C60343-P45
     RDKit          3D

 32 35  0  0  0  0  0  0  0  0999 V2000
  -10.6364  -27.8236   27.2589 O   0  0  0  0  0  0  0  0  0  0  0  0
   -9.7391  -27.1854   27.6325 C   0  0  0  0  0  0  0  0  0  0  0  0
   -9.6048  -26.2781   28.8755 N   0  0  0  0  0  0  0  0  0  0  0  0
  -10.5555  -25.9051   29.8387 C   0  0  0  0  0  0  0  0  0  0  0  0
  -10.9662  -24.4718   29.6578 C   0  0  0  0  0  0  0  0  0  0  0  0
  -11.2900  -23.8817   28.4902 C   0  0  0  0  0  0  0  0  0  0  0  0
  -11.8180  -22.2277   28.6847 S   0  0  0  0  0  0  0  0  0  0  0  0
  -11.6860  -22.3723   30.3902 C   0  0  0  0  0  0  0  0  0  0  0  0
  -11.9380  -21.5986   31.4035 N   0  0  0  0  0  0  0  0  0  0  0  0
  -11.5292  -22.3397   32.4873 C   0  0  0  0  0  0  0  0  0  0  0  0
  -10.9841  -23.5489   32.0908 C   0  0  0  0  0  0  0  0  0  0  0  0
  -11.1680  -23.5812   30.7297 N   0  0  0  0  0  0  0  0  0  0  0  0
   -8.4779  -27.0234   26.8813 C   0  0  0  0  0  0  0  0  0  0  0  0
   -7.5700  -28.0756   26.7337 C   0  0  0  0  0  0  0  0  0  0  0  0
   -6.2080  -27.7874   26.6205 C   0  0  0  0  0  0  0  0  0  0  0  0
   -5.8584  -26.4607   26.8569 C   0  0  0  0  0  0  0  0  0  0  0  0
   -4.6626  -25.8355   27.0672 N   0  0  0  0  0  0  0  0  0  0  0  0
   -4.9689  -24.5956   27.5571 C   0  0  0  0  0  0  0  0  0  0  0  0
   -6.2188  -24.2671   27.3627 N   0  0  0  0  0  0  0  0  0  0  0  0
   -6.7814  -25.4273   26.9398 C   0  0  0  0  0  0  0  0  0  0  0  0
   -8.1196  -25.6794   26.7375 C   0  0  0  0  0  0  0  0  0  0  0  0
   -8.7105  -25.8044   28.8537 H   0  0  0  0  0  0  0  0  0  0  0  0
  -11.4087  -26.5763   29.7070 H   0  0  0  0  0  0  0  0  0  0  0  0
  -10.0769  -26.0725   30.8083 H   0  0  0  0  0  0  0  0  0  0  0  0
  -11.2741  -24.3542   27.5164 H   0  0  0  0  0  0  0  0  0  0  0  0
  -11.6558  -21.9726   33.4986 H   0  0  0  0  0  0  0  0  0  0  0  0
  -10.5559  -24.3645   32.6578 H   0  0  0  0  0  0  0  0  0  0  0  0
   -7.9114  -29.1083   26.7710 H   0  0  0  0  0  0  0  0  0  0  0  0
   -5.4626  -28.5544   26.4863 H   0  0  0  0  0  0  0  0  0  0  0  0
   -3.7449  -26.2699   27.0334 H   0  0  0  0  0  0  0  0  0  0  0  0
   -4.2304  -23.9809   28.0301 H   0  0  0  0  0  0  0  0  0  0  0  0
   -8.8359  -24.8705   26.8224 H   0  0  0  0  0  0  0  0  0  0  0  0
  1  2  2  0
  2  3  1  0
  3  4  1  0
  4  5  1  0
  5  6  2  0
  6  7  1  0
  7  8  1  0
  8  9  2  0
  9 10  1  0
 10 11  2  0
 11 12  1  0
  2 13  1  0
 13 14  2  0
 14 15  1  0
 15 16  2  0
 16 17  1  0
 17 18  1  0
 18 19  2  0
 19 20  1  0
 20 21  2  0
 12  5  1  0
 21 13  1  0
 12  8  1  0
 20 16  1  0
  3 22  1  0
  4 23  1  0
  4 24  1  0
  6 25  1  0
 10 26  1  0
 11 27  1  0
 14 28  1  0
 15 29  1  0
 17 30  1  0
 18 31  1  0
 21 32  1  0
M  END
>  <Energy>  (1339) 
45.766655306749101

>  <compound_id>  (1339) 
60343

>  <target_id>  (1339) 
1

>  <reference_id>  (1339) 
45

>  <inspiration_ids>  (1339) 
[52, 45]

>  <energy_score>  (1339) 
8.481522125449942

>  <distance_score>  (1339) 
1.9465997957308887

>  <path>  (1339) 
/opt/xchem-fragalysis-2/maxwin/BulkDock/SCRATCH/511020/C60343-P45/C60343-P45.minimised.mol

>  <scratch_subdir>  (1339) 
/opt/xchem-fragalysis-2/maxwin/BulkDock/SCRATCH/511020/C60343-P45

>  <fragmenstein_runtime>  (1339) 
5.158918857574463

>  <fragmenstein_outcome>  (1339) 
too moved

>  <fragmenstein_mode>  (1339) 
expansion

>  <fragmenstein_error>  (1339) 


$$$$
C60344-P52
     RDKit          3D

 36 39  0  0  0  0  0  0  0  0999 V2000
  -14.3594  -29.4246   27.1488 O   0  0  0  0  0  0  0  0  0  0  0  0
  -14.2282  -28.4750   27.8540 C   0  0  0  0  0  0  0  0  0  0  0  0
  -14.9530  -27.2493   27.9125 N   0  0  0  0  0  0  0  0  0  0  0  0
  -15.9920  -26.7394   27.0881 C   0  0  0  0  0  0  0  0  0  0  0  0
  -15.3778  -25.6616   26.2405 C   0  0  0  0  0  0  0  0  0  0  0  0
  -15.8257  -25.3489   25.0075 C   0  0  0  0  0  0  0  0  0  0  0  0
  -14.8922  -24.0900   24.2057 S   0  0  0  0  0  0  0  0  0  0  0  0
  -13.8059  -24.0758   25.5557 C   0  0  0  0  0  0  0  0  0  0  0  0
  -12.6798  -23.4670   25.8158 N   0  0  0  0  0  0  0  0  0  0  0  0
  -12.3883  -23.8652   27.0947 C   0  0  0  0  0  0  0  0  0  0  0  0
  -13.3963  -24.6640   27.6055 C   0  0  0  0  0  0  0  0  0  0  0  0
  -14.2448  -24.8976   26.5538 N   0  0  0  0  0  0  0  0  0  0  0  0
  -13.1116  -28.3535   28.8223 C   0  0  0  0  0  0  0  0  0  0  0  0
  -13.3251  -28.5617   30.1825 C   0  0  0  0  0  0  0  0  0  0  0  0
  -12.5990  -27.8231   31.1254 C   0  0  0  0  0  0  0  0  0  0  0  0
  -11.7363  -26.8367   30.6322 C   0  0  0  0  0  0  0  0  0  0  0  0
  -10.9429  -25.8891   31.2297 N   0  0  0  0  0  0  0  0  0  0  0  0
  -10.2950  -25.1863   30.2477 C   0  0  0  0  0  0  0  0  0  0  0  0
   -9.4913  -23.9996   30.5653 C   0  0  0  0  0  0  0  0  0  0  0  0
  -10.4493  -22.9738   30.7711 O   0  0  0  0  0  0  0  0  0  0  0  0
  -10.5934  -25.6474   29.0565 N   0  0  0  0  0  0  0  0  0  0  0  0
  -11.4576  -26.6819   29.2801 C   0  0  0  0  0  0  0  0  0  0  0  0
  -12.1129  -27.4843   28.3538 C   0  0  0  0  0  0  0  0  0  0  0  0
  -14.6165  -26.7048   28.6930 H   0  0  0  0  0  0  0  0  0  0  0  0
  -16.4015  -27.5502   26.4778 H   0  0  0  0  0  0  0  0  0  0  0  0
  -16.7734  -26.3331   27.7351 H   0  0  0  0  0  0  0  0  0  0  0  0
  -16.6736  -25.8055   24.5132 H   0  0  0  0  0  0  0  0  0  0  0  0
  -11.4959  -23.5160   27.5962 H   0  0  0  0  0  0  0  0  0  0  0  0
  -13.5419  -25.0511   28.5954 H   0  0  0  0  0  0  0  0  0  0  0  0
  -14.1241  -29.2242   30.5103 H   0  0  0  0  0  0  0  0  0  0  0  0
  -12.7616  -27.9724   32.1865 H   0  0  0  0  0  0  0  0  0  0  0  0
  -10.8255  -25.7096   32.2154 H   0  0  0  0  0  0  0  0  0  0  0  0
   -8.8276  -23.7279   29.7446 H   0  0  0  0  0  0  0  0  0  0  0  0
   -8.9106  -24.1230   31.4825 H   0  0  0  0  0  0  0  0  0  0  0  0
  -10.8405  -22.7879   29.8985 H   0  0  0  0  0  0  0  0  0  0  0  0
  -12.0300  -27.2371   27.2997 H   0  0  0  0  0  0  0  0  0  0  0  0
  1  2  2  0
  2  3  1  0
  3  4  1  0
  4  5  1  0
  5  6  2  0
  6  7  1  0
  7  8  1  0
  8  9  2  0
  9 10  1  0
 10 11  2  0
 11 12  1  0
  2 13  1  0
 13 14  2  0
 14 15  1  0
 15 16  2  0
 16 17  1  0
 17 18  1  0
 18 19  1  0
 19 20  1  0
 18 21  2  0
 21 22  1  0
 22 23  2  0
 12  5  1  0
 23 13  1  0
 12  8  1  0
 22 16  1  0
  3 24  1  0
  4 25  1  0
  4 26  1  0
  6 27  1  0
 10 28  1  0
 11 29  1  0
 14 30  1  0
 15 31  1  0
 17 32  1  0
 19 33  1  0
 19 34  1  0
 20 35  1  0
 23 36  1  0
M  END
>  <Energy>  (1340) 
39.159880983829105

>  <compound_id>  (1340) 
60344

>  <target_id>  (1340) 
1

>  <reference_id>  (1340) 
52

>  <inspiration_ids>  (1340) 
[52, 45]

>  <energy_score>  (1340) 
-8.986395901661126

>  <distance_score>  (1340) 
5.834653781235929

>  <path>  (1340) 
/opt/xchem-fragalysis-2/maxwin/BulkDock/SCRATCH/511020/C60344-P52/C60344-P52.minimised.mol

>  <scratch_subdir>  (1340) 
/opt/xchem-fragalysis-2/maxwin/BulkDock/SCRATCH/511020/C60344-P52

>  <fragmenstein_runtime>  (1340) 
14.806659698486328

>  <fragmenstein_outcome>  (1340) 
too moved

>  <fragmenstein_mode>  (1340) 
expansion

>  <fragmenstein_error>  (1340) 


$$$$
C60344-P45
     RDKit          3D

 36 39  0  0  0  0  0  0  0  0999 V2000
  -11.4936  -27.9282   29.3466 O   0  0  0  0  0  0  0  0  0  0  0  0
  -10.6112  -27.3242   28.8807 C   0  0  0  0  0  0  0  0  0  0  0  0
   -9.7556  -26.1730   29.4754 N   0  0  0  0  0  0  0  0  0  0  0  0
   -9.8736  -25.4762   30.7139 C   0  0  0  0  0  0  0  0  0  0  0  0
  -10.7332  -24.2520   30.4518 C   0  0  0  0  0  0  0  0  0  0  0  0
  -11.2444  -23.8022   29.2824 C   0  0  0  0  0  0  0  0  0  0  0  0
  -12.0179  -22.2341   29.3970 S   0  0  0  0  0  0  0  0  0  0  0  0
  -11.7921  -22.2745   31.0986 C   0  0  0  0  0  0  0  0  0  0  0  0
  -12.1985  -21.5400   32.0879 N   0  0  0  0  0  0  0  0  0  0  0  0
  -11.7501  -22.2278   33.1925 C   0  0  0  0  0  0  0  0  0  0  0  0
  -11.0220  -23.3518   32.8396 C   0  0  0  0  0  0  0  0  0  0  0  0
  -11.1039  -23.3855   31.4821 N   0  0  0  0  0  0  0  0  0  0  0  0
  -10.1876  -27.5254   27.4342 C   0  0  0  0  0  0  0  0  0  0  0  0
  -10.7024  -26.4450   26.7089 C   0  0  0  0  0  0  0  0  0  0  0  0
   -9.8540  -25.4214   26.2973 C   0  0  0  0  0  0  0  0  0  0  0  0
   -8.5097  -25.6323   26.5629 C   0  0  0  0  0  0  0  0  0  0  0  0
   -7.4498  -24.7900   26.6094 N   0  0  0  0  0  0  0  0  0  0  0  0
   -6.3771  -25.5118   27.0413 C   0  0  0  0  0  0  0  0  0  0  0  0
   -5.1464  -24.8242   27.3793 C   0  0  0  0  0  0  0  0  0  0  0  0
   -5.5348  -23.6366   28.0447 O   0  0  0  0  0  0  0  0  0  0  0  0
   -6.6401  -26.7915   27.1425 N   0  0  0  0  0  0  0  0  0  0  0  0
   -7.9801  -26.8664   26.9444 C   0  0  0  0  0  0  0  0  0  0  0  0
   -8.8512  -27.9096   27.2492 C   0  0  0  0  0  0  0  0  0  0  0  0
   -9.1285  -25.8213   28.7713 H   0  0  0  0  0  0  0  0  0  0  0  0
  -10.2236  -26.1649   31.4795 H   0  0  0  0  0  0  0  0  0  0  0  0
   -8.8705  -25.1618   31.0080 H   0  0  0  0  0  0  0  0  0  0  0  0
  -11.1485  -24.2704   28.3212 H   0  0  0  0  0  0  0  0  0  0  0  0
  -11.9949  -21.8937   34.1936 H   0  0  0  0  0  0  0  0  0  0  0  0
  -10.5702  -24.1392   33.4241 H   0  0  0  0  0  0  0  0  0  0  0  0
  -11.7740  -26.2481   26.7359 H   0  0  0  0  0  0  0  0  0  0  0  0
  -10.2512  -24.4826   25.9323 H   0  0  0  0  0  0  0  0  0  0  0  0
   -7.4490  -23.7837   26.5237 H   0  0  0  0  0  0  0  0  0  0  0  0
   -4.4929  -25.4151   28.0104 H   0  0  0  0  0  0  0  0  0  0  0  0
   -4.6512  -24.6215   26.4438 H   0  0  0  0  0  0  0  0  0  0  0  0
   -4.7124  -23.3118   28.4708 H   0  0  0  0  0  0  0  0  0  0  0  0
   -8.4637  -28.8316   27.6456 H   0  0  0  0  0  0  0  0  0  0  0  0
  1  2  2  0
  2  3  1  0
  3  4  1  0
  4  5  1  0
  5  6  2  0
  6  7  1  0
  7  8  1  0
  8  9  2  0
  9 10  1  0
 10 11  2  0
 11 12  1  0
  2 13  1  0
 13 14  2  0
 14 15  1  0
 15 16  2  0
 16 17  1  0
 17 18  1  0
 18 19  1  0
 19 20  1  0
 18 21  2  0
 21 22  1  0
 22 23  2  0
 12  5  1  0
 23 13  1  0
 12  8  1  0
 22 16  1  0
  3 24  1  0
  4 25  1  0
  4 26  1  0
  6 27  1  0
 10 28  1  0
 11 29  1  0
 14 30  1  0
 15 31  1  0
 17 32  1  0
 19 33  1  0
 19 34  1  0
 20 35  1  0
 23 36  1  0
M  END
>  <Energy>  (1341) 
76.864654651845044

>  <compound_id>  (1341) 
60344

>  <target_id>  (1341) 
1

>  <reference_id>  (1341) 
45

>  <inspiration_ids>  (1341) 
[52, 45]

>  <energy_score>  (1341) 
22.83216629061434

>  <distance_score>  (1341) 
2.42813776618245

>  <path>  (1341) 
/opt/xchem-fragalysis-2/maxwin/BulkDock/SCRATCH/511020/C60344-P45/C60344-P45.minimised.mol

>  <scratch_subdir>  (1341) 
/opt/xchem-fragalysis-2/maxwin/BulkDock/SCRATCH/511020/C60344-P45

>  <fragmenstein_runtime>  (1341) 
5.467472076416016

>  <fragmenstein_outcome>  (1341) 
too moved

>  <fragmenstein_mode>  (1341) 
expansion

>  <fragmenstein_error>  (1341) 


$$$$
C60345-P52
     RDKit          3D

 37 40  0  0  0  0  0  0  0  0999 V2000
  -12.0559  -21.6529   34.7564 N   0  0  0  0  0  0  0  0  0  0  0  0
  -11.5537  -22.1533   33.6210 C   0  0  0  0  0  0  0  0  0  0  0  0
  -10.8873  -23.2633   33.4531 N   0  0  0  0  0  0  0  0  0  0  0  0
  -10.8161  -23.4234   32.0920 C   0  0  0  0  0  0  0  0  0  0  0  0
  -10.3945  -24.5334   31.3531 C   0  0  0  0  0  0  0  0  0  0  0  0
  -10.5678  -24.4788   29.9643 C   0  0  0  0  0  0  0  0  0  0  0  0
  -10.6373  -25.7402   29.2077 C   0  0  0  0  0  0  0  0  0  0  0  0
  -11.5753  -26.4303   29.4892 O   0  0  0  0  0  0  0  0  0  0  0  0
   -9.6329  -25.8923   28.1987 N   0  0  0  0  0  0  0  0  0  0  0  0
   -9.4876  -26.8907   27.1243 C   0  0  0  0  0  0  0  0  0  0  0  0
   -8.7336  -28.5367   27.1181 C   0  0  0  0  0  0  0  0  0  0  0  0
   -9.4849  -29.5333   27.7299 C   0  0  0  0  0  0  0  0  0  0  0  0
   -9.6692  -30.8663   27.1765 C   0  0  0  0  0  0  0  0  0  0  0  0
   -8.9201  -31.2890   26.1547 C   0  0  0  0  0  0  0  0  0  0  0  0
   -8.0469  -30.3941   25.5815 N   0  0  0  0  0  0  0  0  0  0  0  0
   -7.2362  -30.6115   24.4969 C   0  0  0  0  0  0  0  0  0  0  0  0
   -6.4023  -29.5322   24.4668 C   0  0  0  0  0  0  0  0  0  0  0  0
   -6.7747  -28.6152   25.4315 N   0  0  0  0  0  0  0  0  0  0  0  0
   -7.8476  -29.0781   26.0450 C   0  0  0  0  0  0  0  0  0  0  0  0
  -11.0307  -23.3269   29.3127 C   0  0  0  0  0  0  0  0  0  0  0  0
  -11.4131  -22.2006   30.0414 C   0  0  0  0  0  0  0  0  0  0  0  0
  -11.3384  -22.3163   31.4285 C   0  0  0  0  0  0  0  0  0  0  0  0
  -11.7592  -21.4998   32.4416 N   0  0  0  0  0  0  0  0  0  0  0  0
  -13.0470  -21.4268   34.7211 H   0  0  0  0  0  0  0  0  0  0  0  0
  -11.9405  -22.2773   35.5656 H   0  0  0  0  0  0  0  0  0  0  0  0
  -10.0730  -25.4377   31.8568 H   0  0  0  0  0  0  0  0  0  0  0  0
   -9.0426  -25.0741   28.1972 H   0  0  0  0  0  0  0  0  0  0  0  0
  -10.5560  -27.1080   27.2234 H   0  0  0  0  0  0  0  0  0  0  0  0
   -9.4597  -26.4230   26.1550 H   0  0  0  0  0  0  0  0  0  0  0  0
  -10.2798  -29.2712   28.4328 H   0  0  0  0  0  0  0  0  0  0  0  0
  -10.4774  -31.4845   27.5436 H   0  0  0  0  0  0  0  0  0  0  0  0
   -9.0168  -32.2662   25.6996 H   0  0  0  0  0  0  0  0  0  0  0  0
   -7.2502  -31.5337   23.9355 H   0  0  0  0  0  0  0  0  0  0  0  0
   -5.5489  -29.3643   23.8228 H   0  0  0  0  0  0  0  0  0  0  0  0
  -11.1870  -23.3328   28.2351 H   0  0  0  0  0  0  0  0  0  0  0  0
  -11.8090  -21.3164   29.5543 H   0  0  0  0  0  0  0  0  0  0  0  0
  -12.2338  -20.6179   32.3523 H   0  0  0  0  0  0  0  0  0  0  0  0
  1  2  1  0
  2  3  2  0
  3  4  1  0
  4  5  2  0
  5  6  1  0
  6  7  1  0
  7  8  2  0
  7  9  1  0
  9 10  1  0
 10 11  1  0
 11 12  2  0
 12 13  1  0
 13 14  2  0
 14 15  1  0
 15 16  1  0
 16 17  2  0
 17 18  1  0
 18 19  2  0
  6 20  2  0
 20 21  1  0
 21 22  2  0
 22 23  1  0
 23  2  1  0
 22  4  1  0
 19 11  1  0
 19 15  1  0
  1 24  1  0
  1 25  1  0
  5 26  1  0
  9 27  1  0
 10 28  1  0
 10 29  1  0
 12 30  1  0
 13 31  1  0
 14 32  1  0
 16 33  1  0
 17 34  1  0
 20 35  1  0
 21 36  1  0
 23 37  1  0
M  END
>  <Energy>  (1342) 
53.820132853202566

>  <compound_id>  (1342) 
60345

>  <target_id>  (1342) 
1

>  <reference_id>  (1342) 
52

>  <inspiration_ids>  (1342) 
[52, 45]

>  <energy_score>  (1342) 
49.33759112511882

>  <distance_score>  (1342) 
3.847173955547397

>  <path>  (1342) 
/opt/xchem-fragalysis-2/maxwin/BulkDock/SCRATCH/511020/C60345-P52/C60345-P52.minimised.mol

>  <scratch_subdir>  (1342) 
/opt/xchem-fragalysis-2/maxwin/BulkDock/SCRATCH/511020/C60345-P52

>  <fragmenstein_runtime>  (1342) 
10.067820310592651

>  <fragmenstein_outcome>  (1342) 
too moved

>  <fragmenstein_mode>  (1342) 
expansion

>  <fragmenstein_error>  (1342) 


$$$$
C60345-P45
     RDKit          3D

 37 40  0  0  0  0  0  0  0  0999 V2000
  -12.3786  -20.6598   33.9081 N   0  0  0  0  0  0  0  0  0  0  0  0
  -12.0487  -21.7071   33.1322 C   0  0  0  0  0  0  0  0  0  0  0  0
  -11.9837  -21.8052   31.8275 N   0  0  0  0  0  0  0  0  0  0  0  0
  -11.3163  -22.9912   31.6010 C   0  0  0  0  0  0  0  0  0  0  0  0
  -11.0634  -23.7033   30.4198 C   0  0  0  0  0  0  0  0  0  0  0  0
  -10.2439  -24.8684   30.5092 C   0  0  0  0  0  0  0  0  0  0  0  0
  -10.2780  -25.8894   29.4341 C   0  0  0  0  0  0  0  0  0  0  0  0
  -10.5480  -26.9798   29.7221 O   0  0  0  0  0  0  0  0  0  0  0  0
   -9.9306  -25.2848   28.0880 N   0  0  0  0  0  0  0  0  0  0  0  0
   -9.7462  -25.8980   26.8195 C   0  0  0  0  0  0  0  0  0  0  0  0
   -8.3526  -26.4705   26.8415 C   0  0  0  0  0  0  0  0  0  0  0  0
   -8.1289  -27.7936   26.6480 C   0  0  0  0  0  0  0  0  0  0  0  0
   -6.7905  -28.3475   26.5349 C   0  0  0  0  0  0  0  0  0  0  0  0
   -5.7303  -27.5423   26.7060 C   0  0  0  0  0  0  0  0  0  0  0  0
   -5.9543  -26.1985   26.9724 N   0  0  0  0  0  0  0  0  0  0  0  0
   -5.0612  -25.2009   27.2565 C   0  0  0  0  0  0  0  0  0  0  0  0
   -5.8192  -24.0855   27.5247 C   0  0  0  0  0  0  0  0  0  0  0  0
   -7.1504  -24.3441   27.3661 N   0  0  0  0  0  0  0  0  0  0  0  0
   -7.2145  -25.6242   27.0511 C   0  0  0  0  0  0  0  0  0  0  0  0
   -9.6802  -25.2839   31.7281 C   0  0  0  0  0  0  0  0  0  0  0  0
  -10.0361  -24.6502   32.9093 C   0  0  0  0  0  0  0  0  0  0  0  0
  -10.8915  -23.5541   32.7967 C   0  0  0  0  0  0  0  0  0  0  0  0
  -11.6227  -22.8610   33.7188 N   0  0  0  0  0  0  0  0  0  0  0  0
  -12.0605  -19.7709   33.5313 H   0  0  0  0  0  0  0  0  0  0  0  0
  -12.1151  -20.7055   34.8886 H   0  0  0  0  0  0  0  0  0  0  0  0
  -11.5294  -23.3947   29.4904 H   0  0  0  0  0  0  0  0  0  0  0  0
   -9.8287  -24.2808   28.1852 H   0  0  0  0  0  0  0  0  0  0  0  0
   -9.8603  -25.1386   26.0409 H   0  0  0  0  0  0  0  0  0  0  0  0
  -10.5090  -26.6723   26.6924 H   0  0  0  0  0  0  0  0  0  0  0  0
   -8.9523  -28.4875   26.4945 H   0  0  0  0  0  0  0  0  0  0  0  0
   -6.6992  -29.3942   26.2691 H   0  0  0  0  0  0  0  0  0  0  0  0
   -4.7022  -27.8705   26.6254 H   0  0  0  0  0  0  0  0  0  0  0  0
   -3.9987  -25.3923   27.2752 H   0  0  0  0  0  0  0  0  0  0  0  0
   -5.4742  -23.1070   27.8258 H   0  0  0  0  0  0  0  0  0  0  0  0
   -9.1130  -26.2134   31.7867 H   0  0  0  0  0  0  0  0  0  0  0  0
   -9.7567  -25.0908   33.8588 H   0  0  0  0  0  0  0  0  0  0  0  0
  -11.7032  -23.0910   34.6962 H   0  0  0  0  0  0  0  0  0  0  0  0
  1  2  1  0
  2  3  2  0
  3  4  1  0
  4  5  2  0
  5  6  1  0
  6  7  1  0
  7  8  2  0
  7  9  1  0
  9 10  1  0
 10 11  1  0
 11 12  2  0
 12 13  1  0
 13 14  2  0
 14 15  1  0
 15 16  1  0
 16 17  2  0
 17 18  1  0
 18 19  2  0
  6 20  2  0
 20 21  1  0
 21 22  2  0
 22 23  1  0
 23  2  1  0
 22  4  1  0
 19 11  1  0
 19 15  1  0
  1 24  1  0
  1 25  1  0
  5 26  1  0
  9 27  1  0
 10 28  1  0
 10 29  1  0
 12 30  1  0
 13 31  1  0
 14 32  1  0
 16 33  1  0
 17 34  1  0
 20 35  1  0
 21 36  1  0
 23 37  1  0
M  END
>  <Energy>  (1343) 
4.5612239645807335

>  <compound_id>  (1343) 
60345

>  <target_id>  (1343) 
1

>  <reference_id>  (1343) 
45

>  <inspiration_ids>  (1343) 
[52, 45]

>  <energy_score>  (1343) 
-4.411936477284428

>  <distance_score>  (1343) 
2.0248086957846456

>  <path>  (1343) 
/opt/xchem-fragalysis-2/maxwin/BulkDock/SCRATCH/511020/C60345-P45/C60345-P45.minimised.mol

>  <scratch_subdir>  (1343) 
/opt/xchem-fragalysis-2/maxwin/BulkDock/SCRATCH/511020/C60345-P45

>  <fragmenstein_runtime>  (1343) 
6.999606132507324

>  <fragmenstein_outcome>  (1343) 
too moved

>  <fragmenstein_mode>  (1343) 
expansion

>  <fragmenstein_error>  (1343) 


$$$$
C60346-P52
     RDKit          3D

 35 38  0  0  0  0  0  0  0  0999 V2000
   -6.6489  -30.6376   24.2359 C   0  0  0  0  0  0  0  0  0  0  0  0
   -7.6463  -31.5437   24.7555 N   0  0  0  0  0  0  0  0  0  0  0  0
   -7.9624  -32.7617   24.2305 C   0  0  0  0  0  0  0  0  0  0  0  0
   -9.0266  -33.2853   24.8078 N   0  0  0  0  0  0  0  0  0  0  0  0
   -9.4196  -32.3759   25.7530 C   0  0  0  0  0  0  0  0  0  0  0  0
  -10.6028  -32.3096   26.5376 C   0  0  0  0  0  0  0  0  0  0  0  0
  -10.8180  -31.1870   27.3653 C   0  0  0  0  0  0  0  0  0  0  0  0
  -12.2330  -30.7668   27.7903 C   0  0  0  0  0  0  0  0  0  0  0  0
  -13.1177  -31.3755   27.2627 O   0  0  0  0  0  0  0  0  0  0  0  0
  -12.2730  -29.6355   28.6894 N   0  0  0  0  0  0  0  0  0  0  0  0
  -13.3775  -28.8338   29.1511 C   0  0  0  0  0  0  0  0  0  0  0  0
  -13.1500  -27.4323   28.6593 C   0  0  0  0  0  0  0  0  0  0  0  0
  -13.5838  -26.9356   27.4801 C   0  0  0  0  0  0  0  0  0  0  0  0
  -13.1116  -25.2551   27.1942 S   0  0  0  0  0  0  0  0  0  0  0  0
  -12.3261  -25.2508   28.7368 C   0  0  0  0  0  0  0  0  0  0  0  0
  -11.6422  -24.3711   29.4106 N   0  0  0  0  0  0  0  0  0  0  0  0
  -11.2975  -25.0484   30.5604 C   0  0  0  0  0  0  0  0  0  0  0  0
  -11.8178  -26.3346   30.5647 C   0  0  0  0  0  0  0  0  0  0  0  0
  -12.4526  -26.4577   29.3630 N   0  0  0  0  0  0  0  0  0  0  0  0
   -9.7692  -30.2703   27.5019 C   0  0  0  0  0  0  0  0  0  0  0  0
   -8.6596  -30.2612   26.6675 C   0  0  0  0  0  0  0  0  0  0  0  0
   -8.5150  -31.3183   25.7881 C   0  0  0  0  0  0  0  0  0  0  0  0
   -6.9014  -29.6113   24.5057 H   0  0  0  0  0  0  0  0  0  0  0  0
   -6.6309  -30.7272   23.1476 H   0  0  0  0  0  0  0  0  0  0  0  0
   -5.6768  -30.9235   24.6416 H   0  0  0  0  0  0  0  0  0  0  0  0
   -7.4048  -33.2064   23.4156 H   0  0  0  0  0  0  0  0  0  0  0  0
  -11.3779  -33.0541   26.3851 H   0  0  0  0  0  0  0  0  0  0  0  0
  -11.3433  -29.4334   29.0033 H   0  0  0  0  0  0  0  0  0  0  0  0
  -13.4118  -28.8823   30.2432 H   0  0  0  0  0  0  0  0  0  0  0  0
  -14.3078  -29.2504   28.7521 H   0  0  0  0  0  0  0  0  0  0  0  0
  -14.1481  -27.4900   26.7406 H   0  0  0  0  0  0  0  0  0  0  0  0
  -10.7119  -24.5652   31.3351 H   0  0  0  0  0  0  0  0  0  0  0  0
  -11.7923  -27.1224   31.3007 H   0  0  0  0  0  0  0  0  0  0  0  0
   -9.8235  -29.4082   28.1416 H   0  0  0  0  0  0  0  0  0  0  0  0
   -8.0115  -29.3930   26.6586 H   0  0  0  0  0  0  0  0  0  0  0  0
  1  2  1  0
  2  3  1  0
  3  4  2  0
  4  5  1  0
  5  6  2  0
  6  7  1  0
  7  8  1  0
  8  9  2  0
  8 10  1  0
 10 11  1  0
 11 12  1  0
 12 13  2  0
 13 14  1  0
 14 15  1  0
 15 16  2  0
 16 17  1  0
 17 18  2  0
 18 19  1  0
  7 20  2  0
 20 21  1  0
 21 22  2  0
 22  2  1  0
 22  5  1  0
 19 12  1  0
 19 15  1  0
  1 23  1  0
  1 24  1  0
  1 25  1  0
  3 26  1  0
  6 27  1  0
 10 28  1  0
 11 29  1  0
 11 30  1  0
 13 31  1  0
 17 32  1  0
 18 33  1  0
 20 34  1  0
 21 35  1  0
M  END
>  <Energy>  (1344) 
29.776032260354931

>  <compound_id>  (1344) 
60346

>  <target_id>  (1344) 
1

>  <reference_id>  (1344) 
52

>  <inspiration_ids>  (1344) 
[52, 45]

>  <energy_score>  (1344) 
-11.910550919912168

>  <distance_score>  (1344) 
5.243161263614439

>  <path>  (1344) 
/opt/xchem-fragalysis-2/maxwin/BulkDock/SCRATCH/511020/C60346-P52/C60346-P52.minimised.mol

>  <scratch_subdir>  (1344) 
/opt/xchem-fragalysis-2/maxwin/BulkDock/SCRATCH/511020/C60346-P52

>  <fragmenstein_runtime>  (1344) 
8.839365720748901

>  <fragmenstein_outcome>  (1344) 
too moved

>  <fragmenstein_mode>  (1344) 
expansion

>  <fragmenstein_error>  (1344) 


$$$$
C60346-P45
     RDKit          3D

 35 38  0  0  0  0  0  0  0  0999 V2000
   -5.7472  -23.9362   27.5976 C   0  0  0  0  0  0  0  0  0  0  0  0
   -5.9333  -25.2585   27.0785 N   0  0  0  0  0  0  0  0  0  0  0  0
   -5.0368  -26.2799   27.0461 C   0  0  0  0  0  0  0  0  0  0  0  0
   -5.6578  -27.4446   27.0360 N   0  0  0  0  0  0  0  0  0  0  0  0
   -6.9921  -27.1495   26.9204 C   0  0  0  0  0  0  0  0  0  0  0  0
   -8.1413  -27.9419   27.0588 C   0  0  0  0  0  0  0  0  0  0  0  0
   -9.3783  -27.2641   27.0982 C   0  0  0  0  0  0  0  0  0  0  0  0
  -10.1305  -27.2517   28.4059 C   0  0  0  0  0  0  0  0  0  0  0  0
  -11.0546  -27.9305   28.6161 O   0  0  0  0  0  0  0  0  0  0  0  0
   -9.4866  -26.1317   29.2702 N   0  0  0  0  0  0  0  0  0  0  0  0
   -9.9019  -25.5664   30.5056 C   0  0  0  0  0  0  0  0  0  0  0  0
  -10.7230  -24.3229   30.2248 C   0  0  0  0  0  0  0  0  0  0  0  0
  -11.1615  -23.8236   29.0468 C   0  0  0  0  0  0  0  0  0  0  0  0
  -11.9252  -22.2490   29.1776 S   0  0  0  0  0  0  0  0  0  0  0  0
  -11.7583  -22.3305   30.8858 C   0  0  0  0  0  0  0  0  0  0  0  0
  -12.1300  -21.5811   31.8784 N   0  0  0  0  0  0  0  0  0  0  0  0
  -11.6816  -22.2700   32.9833 C   0  0  0  0  0  0  0  0  0  0  0  0
  -10.9902  -23.4152   32.6258 C   0  0  0  0  0  0  0  0  0  0  0  0
  -11.0959  -23.4579   31.2652 N   0  0  0  0  0  0  0  0  0  0  0  0
   -9.4988  -25.9743   26.5795 C   0  0  0  0  0  0  0  0  0  0  0  0
   -8.3785  -25.1652   26.5725 C   0  0  0  0  0  0  0  0  0  0  0  0
   -7.1616  -25.7783   26.8067 C   0  0  0  0  0  0  0  0  0  0  0  0
   -4.7290  -23.8442   27.9687 H   0  0  0  0  0  0  0  0  0  0  0  0
   -6.4415  -23.7778   28.4267 H   0  0  0  0  0  0  0  0  0  0  0  0
   -5.9529  -23.2164   26.8077 H   0  0  0  0  0  0  0  0  0  0  0  0
   -3.9635  -26.1407   27.0958 H   0  0  0  0  0  0  0  0  0  0  0  0
   -8.0647  -28.9918   27.3059 H   0  0  0  0  0  0  0  0  0  0  0  0
   -8.6458  -25.8014   28.8224 H   0  0  0  0  0  0  0  0  0  0  0  0
   -8.9962  -25.2836   31.0505 H   0  0  0  0  0  0  0  0  0  0  0  0
  -10.3786  -26.3608   31.0690 H   0  0  0  0  0  0  0  0  0  0  0  0
  -11.0410  -24.2710   28.0787 H   0  0  0  0  0  0  0  0  0  0  0  0
  -11.9014  -21.9214   33.9857 H   0  0  0  0  0  0  0  0  0  0  0  0
  -10.5343  -24.2001   33.2124 H   0  0  0  0  0  0  0  0  0  0  0  0
  -10.4837  -25.5240   26.4848 H   0  0  0  0  0  0  0  0  0  0  0  0
   -8.4618  -24.0985   26.5282 H   0  0  0  0  0  0  0  0  0  0  0  0
  1  2  1  0
  2  3  1  0
  3  4  2  0
  4  5  1  0
  5  6  2  0
  6  7  1  0
  7  8  1  0
  8  9  2  0
  8 10  1  0
 10 11  1  0
 11 12  1  0
 12 13  2  0
 13 14  1  0
 14 15  1  0
 15 16  2  0
 16 17  1  0
 17 18  2  0
 18 19  1  0
  7 20  2  0
 20 21  1  0
 21 22  2  0
 22  2  1  0
 22  5  1  0
 19 12  1  0
 19 15  1  0
  1 23  1  0
  1 24  1  0
  1 25  1  0
  3 26  1  0
  6 27  1  0
 10 28  1  0
 11 29  1  0
 11 30  1  0
 13 31  1  0
 17 32  1  0
 18 33  1  0
 20 34  1  0
 21 35  1  0
M  END
>  <Energy>  (1345) 
75.376424761944989

>  <compound_id>  (1345) 
60346

>  <target_id>  (1345) 
1

>  <reference_id>  (1345) 
45

>  <inspiration_ids>  (1345) 
[52, 45]

>  <energy_score>  (1345) 
27.17625928270553

>  <distance_score>  (1345) 
2.1366519417024143

>  <path>  (1345) 
/opt/xchem-fragalysis-2/maxwin/BulkDock/SCRATCH/511020/C60346-P45/C60346-P45.minimised.mol

>  <scratch_subdir>  (1345) 
/opt/xchem-fragalysis-2/maxwin/BulkDock/SCRATCH/511020/C60346-P45

>  <fragmenstein_runtime>  (1345) 
6.742733478546143

>  <fragmenstein_outcome>  (1345) 
too moved

>  <fragmenstein_mode>  (1345) 
expansion

>  <fragmenstein_error>  (1345) 


$$$$
C60347-P52
     RDKit          3D

 32 35  0  0  0  0  0  0  0  0999 V2000
  -13.1322  -23.7386   28.5070 O   0  0  0  0  0  0  0  0  0  0  0  0
  -12.4206  -22.8330   28.2983 C   0  0  0  0  0  0  0  0  0  0  0  0
  -11.7861  -22.6755   26.8994 C   0  0  0  0  0  0  0  0  0  0  0  0
  -10.9173  -23.9288   26.9226 C   0  0  0  0  0  0  0  0  0  0  0  0
  -11.3372  -25.1365   26.4845 C   0  0  0  0  0  0  0  0  0  0  0  0
  -10.8719  -26.4190   27.5969 S   0  0  0  0  0  0  0  0  0  0  0  0
   -9.9153  -25.3062   28.4791 C   0  0  0  0  0  0  0  0  0  0  0  0
   -9.2791  -25.3361   29.6074 N   0  0  0  0  0  0  0  0  0  0  0  0
   -8.9374  -24.0351   29.8206 C   0  0  0  0  0  0  0  0  0  0  0  0
   -9.3809  -23.2294   28.7970 C   0  0  0  0  0  0  0  0  0  0  0  0
  -10.0320  -24.0701   27.9679 N   0  0  0  0  0  0  0  0  0  0  0  0
  -11.8806  -21.7381   29.2551 N   0  0  0  0  0  0  0  0  0  0  0  0
  -12.0178  -21.5964   30.5937 C   0  0  0  0  0  0  0  0  0  0  0  0
  -11.2764  -20.9378   31.4592 N   0  0  0  0  0  0  0  0  0  0  0  0
  -10.8507  -21.9618   32.3092 C   0  0  0  0  0  0  0  0  0  0  0  0
   -9.8414  -22.0400   33.2650 C   0  0  0  0  0  0  0  0  0  0  0  0
   -9.4015  -23.2926   33.7166 C   0  0  0  0  0  0  0  0  0  0  0  0
   -9.8805  -24.4626   33.1502 C   0  0  0  0  0  0  0  0  0  0  0  0
  -10.8952  -24.4101   32.2062 C   0  0  0  0  0  0  0  0  0  0  0  0
  -11.4294  -23.1571   31.9336 C   0  0  0  0  0  0  0  0  0  0  0  0
  -12.4989  -22.7275   31.1976 N   0  0  0  0  0  0  0  0  0  0  0  0
  -11.2240  -21.7520   26.8113 H   0  0  0  0  0  0  0  0  0  0  0  0
  -12.5549  -22.7196   26.1248 H   0  0  0  0  0  0  0  0  0  0  0  0
  -12.1735  -25.2953   25.8135 H   0  0  0  0  0  0  0  0  0  0  0  0
   -8.4122  -23.7412   30.7179 H   0  0  0  0  0  0  0  0  0  0  0  0
   -9.2883  -22.1784   28.5893 H   0  0  0  0  0  0  0  0  0  0  0  0
  -11.2191  -21.1520   28.7598 H   0  0  0  0  0  0  0  0  0  0  0  0
   -9.2963  -21.1578   33.5403 H   0  0  0  0  0  0  0  0  0  0  0  0
   -8.5891  -23.3481   34.4302 H   0  0  0  0  0  0  0  0  0  0  0  0
   -9.4346  -25.4182   33.4109 H   0  0  0  0  0  0  0  0  0  0  0  0
  -11.2473  -25.3067   31.7076 H   0  0  0  0  0  0  0  0  0  0  0  0
  -13.1155  -23.3738   30.7364 H   0  0  0  0  0  0  0  0  0  0  0  0
  1  2  2  0
  2  3  1  0
  3  4  1  0
  4  5  2  0
  5  6  1  0
  6  7  1  0
  7  8  2  0
  8  9  1  0
  9 10  2  0
 10 11  1  0
  2 12  1  0
 12 13  1  0
 13 14  2  0
 14 15  1  0
 15 16  2  0
 16 17  1  0
 17 18  2  0
 18 19  1  0
 19 20  2  0
 20 21  1  0
 11  4  1  0
 21 13  1  0
 11  7  1  0
 20 15  1  0
  3 22  1  0
  3 23  1  0
  5 24  1  0
  9 25  1  0
 10 26  1  0
 12 27  1  0
 16 28  1  0
 17 29  1  0
 18 30  1  0
 19 31  1  0
 21 32  1  0
M  END
>  <Energy>  (1346) 
78.113494760297229

>  <compound_id>  (1346) 
60347

>  <target_id>  (1346) 
1

>  <reference_id>  (1346) 
52

>  <inspiration_ids>  (1346) 
[52, 45]

>  <energy_score>  (1346) 
9.261733441974684

>  <distance_score>  (1346) 
3.2484293139745737

>  <path>  (1346) 
/opt/xchem-fragalysis-2/maxwin/BulkDock/SCRATCH/511020/C60347-P52/C60347-P52.minimised.mol

>  <scratch_subdir>  (1346) 
/opt/xchem-fragalysis-2/maxwin/BulkDock/SCRATCH/511020/C60347-P52

>  <fragmenstein_runtime>  (1346) 
9.631078243255615

>  <fragmenstein_outcome>  (1346) 
too moved

>  <fragmenstein_mode>  (1346) 
expansion

>  <fragmenstein_error>  (1346) 


$$$$
C60347-P45
     RDKit          3D

 32 35  0  0  0  0  0  0  0  0999 V2000
  -11.1246  -27.9960   29.5439 O   0  0  0  0  0  0  0  0  0  0  0  0
  -10.2277  -27.3969   29.0909 C   0  0  0  0  0  0  0  0  0  0  0  0
   -9.3377  -28.0084   27.9382 C   0  0  0  0  0  0  0  0  0  0  0  0
   -9.1596  -27.0196   26.8859 C   0  0  0  0  0  0  0  0  0  0  0  0
  -10.2870  -26.4475   26.4402 C   0  0  0  0  0  0  0  0  0  0  0  0
  -10.0653  -24.7644   26.1664 S   0  0  0  0  0  0  0  0  0  0  0  0
   -8.3654  -24.9117   26.5498 C   0  0  0  0  0  0  0  0  0  0  0  0
   -7.3878  -24.0817   26.7903 N   0  0  0  0  0  0  0  0  0  0  0  0
   -6.3252  -24.9066   27.0757 C   0  0  0  0  0  0  0  0  0  0  0  0
   -6.7128  -26.2363   27.0697 C   0  0  0  0  0  0  0  0  0  0  0  0
   -8.0481  -26.2010   26.8061 N   0  0  0  0  0  0  0  0  0  0  0  0
   -9.6226  -26.0231   29.5022 N   0  0  0  0  0  0  0  0  0  0  0  0
  -10.0261  -25.1354   30.4198 C   0  0  0  0  0  0  0  0  0  0  0  0
  -10.7473  -24.0443   30.2646 N   0  0  0  0  0  0  0  0  0  0  0  0
  -10.9256  -23.5347   31.5314 C   0  0  0  0  0  0  0  0  0  0  0  0
  -11.5766  -22.3756   31.9696 C   0  0  0  0  0  0  0  0  0  0  0  0
  -11.9065  -22.3144   33.3152 C   0  0  0  0  0  0  0  0  0  0  0  0
  -11.6189  -23.4046   34.1306 C   0  0  0  0  0  0  0  0  0  0  0  0
  -10.8103  -24.4667   33.7495 C   0  0  0  0  0  0  0  0  0  0  0  0
  -10.4080  -24.4346   32.4492 C   0  0  0  0  0  0  0  0  0  0  0  0
   -9.7152  -25.3529   31.7266 N   0  0  0  0  0  0  0  0  0  0  0  0
   -9.8003  -28.9209   27.5484 H   0  0  0  0  0  0  0  0  0  0  0  0
   -8.3632  -28.2267   28.3384 H   0  0  0  0  0  0  0  0  0  0  0  0
  -11.2889  -26.8497   26.5498 H   0  0  0  0  0  0  0  0  0  0  0  0
   -5.3349  -24.5085   27.2625 H   0  0  0  0  0  0  0  0  0  0  0  0
   -6.1620  -27.1557   27.2072 H   0  0  0  0  0  0  0  0  0  0  0  0
   -8.8040  -25.8389   28.9524 H   0  0  0  0  0  0  0  0  0  0  0  0
  -11.9269  -21.6412   31.2581 H   0  0  0  0  0  0  0  0  0  0  0  0
  -12.5127  -21.4994   33.6981 H   0  0  0  0  0  0  0  0  0  0  0  0
  -12.0462  -23.4644   35.1140 H   0  0  0  0  0  0  0  0  0  0  0  0
  -10.6274  -25.3084   34.4067 H   0  0  0  0  0  0  0  0  0  0  0  0
   -9.2800  -26.1882   32.0976 H   0  0  0  0  0  0  0  0  0  0  0  0
  1  2  2  0
  2  3  1  0
  3  4  1  0
  4  5  2  0
  5  6  1  0
  6  7  1  0
  7  8  2  0
  8  9  1  0
  9 10  2  0
 10 11  1  0
  2 12  1  0
 12 13  1  0
 13 14  2  0
 14 15  1  0
 15 16  2  0
 16 17  1  0
 17 18  2  0
 18 19  1  0
 19 20  2  0
 20 21  1  0
 11  4  1  0
 21 13  1  0
 11  7  1  0
 20 15  1  0
  3 22  1  0
  3 23  1  0
  5 24  1  0
  9 25  1  0
 10 26  1  0
 12 27  1  0
 16 28  1  0
 17 29  1  0
 18 30  1  0
 19 31  1  0
 21 32  1  0
M  END
>  <Energy>  (1347) 
86.275229077726465

>  <compound_id>  (1347) 
60347

>  <target_id>  (1347) 
1

>  <reference_id>  (1347) 
45

>  <inspiration_ids>  (1347) 
[52, 45]

>  <energy_score>  (1347) 
17.423467759406094

>  <distance_score>  (1347) 
3.094124985576218

>  <path>  (1347) 
/opt/xchem-fragalysis-2/maxwin/BulkDock/SCRATCH/511020/C60347-P45/C60347-P45.minimised.mol

>  <scratch_subdir>  (1347) 
/opt/xchem-fragalysis-2/maxwin/BulkDock/SCRATCH/511020/C60347-P45

>  <fragmenstein_runtime>  (1347) 
6.897244930267334

>  <fragmenstein_outcome>  (1347) 
too moved

>  <fragmenstein_mode>  (1347) 
expansion

>  <fragmenstein_error>  (1347) 


$$$$
C60348-P52
     RDKit          3D

 41 44  0  0  0  0  0  0  0  0999 V2000
  -11.3149  -21.6451   28.8117 C   0  0  0  0  0  0  0  0  0  0  0  0
  -11.9138  -20.8922   29.9567 C   0  0  0  0  0  0  0  0  0  0  0  0
  -12.8939  -21.7806   30.7386 C   0  0  0  0  0  0  0  0  0  0  0  0
  -12.5621  -21.8171   32.1502 N   0  0  0  0  0  0  0  0  0  0  0  0
  -11.3039  -22.1331   32.6182 C   0  0  0  0  0  0  0  0  0  0  0  0
  -10.5884  -23.0992   31.9774 N   0  0  0  0  0  0  0  0  0  0  0  0
  -11.0142  -24.2635   31.2719 C   0  0  0  0  0  0  0  0  0  0  0  0
  -12.1049  -24.7358   31.1290 O   0  0  0  0  0  0  0  0  0  0  0  0
   -9.9136  -24.9708   30.4811 C   0  0  0  0  0  0  0  0  0  0  0  0
  -10.6471  -25.6674   29.3323 C   0  0  0  0  0  0  0  0  0  0  0  0
  -11.4570  -26.7496   29.4537 C   0  0  0  0  0  0  0  0  0  0  0  0
  -12.3902  -27.1377   28.0160 S   0  0  0  0  0  0  0  0  0  0  0  0
  -11.6834  -25.7606   27.2476 C   0  0  0  0  0  0  0  0  0  0  0  0
  -11.8883  -25.1549   26.1125 N   0  0  0  0  0  0  0  0  0  0  0  0
  -11.0610  -24.0622   26.1902 C   0  0  0  0  0  0  0  0  0  0  0  0
  -10.3543  -24.0484   27.3766 C   0  0  0  0  0  0  0  0  0  0  0  0
  -10.7926  -25.1297   28.0663 N   0  0  0  0  0  0  0  0  0  0  0  0
  -10.9297  -21.2286   33.4938 N   0  0  0  0  0  0  0  0  0  0  0  0
  -12.0787  -20.4835   33.7659 C   0  0  0  0  0  0  0  0  0  0  0  0
  -12.3263  -19.3690   34.5801 C   0  0  0  0  0  0  0  0  0  0  0  0
  -13.6069  -18.8031   34.6622 C   0  0  0  0  0  0  0  0  0  0  0  0
  -14.6620  -19.3370   33.9459 C   0  0  0  0  0  0  0  0  0  0  0  0
  -14.4380  -20.3882   33.0704 C   0  0  0  0  0  0  0  0  0  0  0  0
  -13.1466  -20.9282   33.0104 C   0  0  0  0  0  0  0  0  0  0  0  0
  -12.0888  -22.0414   28.1505 H   0  0  0  0  0  0  0  0  0  0  0  0
  -10.6460  -21.0149   28.2275 H   0  0  0  0  0  0  0  0  0  0  0  0
  -10.7236  -22.4508   29.2332 H   0  0  0  0  0  0  0  0  0  0  0  0
  -12.4105  -20.0193   29.5413 H   0  0  0  0  0  0  0  0  0  0  0  0
  -11.1092  -20.4885   30.5806 H   0  0  0  0  0  0  0  0  0  0  0  0
  -12.9740  -22.7883   30.3401 H   0  0  0  0  0  0  0  0  0  0  0  0
  -13.8955  -21.3627   30.6875 H   0  0  0  0  0  0  0  0  0  0  0  0
   -9.5772  -23.0515   31.9555 H   0  0  0  0  0  0  0  0  0  0  0  0
   -9.4259  -25.6786   31.1517 H   0  0  0  0  0  0  0  0  0  0  0  0
   -9.1746  -24.2578   30.1057 H   0  0  0  0  0  0  0  0  0  0  0  0
  -11.6570  -27.2794   30.3741 H   0  0  0  0  0  0  0  0  0  0  0  0
  -11.0039  -23.3399   25.3857 H   0  0  0  0  0  0  0  0  0  0  0  0
   -9.6114  -23.3644   27.7475 H   0  0  0  0  0  0  0  0  0  0  0  0
  -11.5637  -18.9245   35.1912 H   0  0  0  0  0  0  0  0  0  0  0  0
  -13.7677  -17.9486   35.3151 H   0  0  0  0  0  0  0  0  0  0  0  0
  -15.6595  -18.9168   34.0417 H   0  0  0  0  0  0  0  0  0  0  0  0
  -15.2461  -20.7644   32.4546 H   0  0  0  0  0  0  0  0  0  0  0  0
  1  2  1  0
  2  3  1  0
  3  4  1  0
  4  5  1  0
  5  6  1  0
  6  7  1  0
  7  8  2  0
  7  9  1  0
  9 10  1  0
 10 11  2  0
 11 12  1  0
 12 13  1  0
 13 14  2  0
 14 15  1  0
 15 16  2  0
 16 17  1  0
  5 18  2  0
 18 19  1  0
 19 20  2  0
 20 21  1  0
 21 22  2  0
 22 23  1  0
 23 24  2  0
 24  4  1  0
 17 10  1  0
 24 19  1  0
 17 13  1  0
  1 25  1  0
  1 26  1  0
  1 27  1  0
  2 28  1  0
  2 29  1  0
  3 30  1  0
  3 31  1  0
  6 32  1  0
  9 33  1  0
  9 34  1  0
 11 35  1  0
 15 36  1  0
 16 37  1  0
 20 38  1  0
 21 39  1  0
 22 40  1  0
 23 41  1  0
M  END
>  <Energy>  (1348) 
56.069757093095561

>  <compound_id>  (1348) 
60348

>  <target_id>  (1348) 
1

>  <reference_id>  (1348) 
52

>  <inspiration_ids>  (1348) 
[52, 45]

>  <energy_score>  (1348) 
-22.28238239003531

>  <distance_score>  (1348) 
4.383294316220301

>  <path>  (1348) 
/opt/xchem-fragalysis-2/maxwin/BulkDock/SCRATCH/511020/C60348-P52/C60348-P52.minimised.mol

>  <scratch_subdir>  (1348) 
/opt/xchem-fragalysis-2/maxwin/BulkDock/SCRATCH/511020/C60348-P52

>  <fragmenstein_runtime>  (1348) 
11.70771598815918

>  <fragmenstein_outcome>  (1348) 
too moved

>  <fragmenstein_mode>  (1348) 
expansion

>  <fragmenstein_error>  (1348) 


$$$$
C60348-P45
     RDKit          3D

 41 44  0  0  0  0  0  0  0  0999 V2000
  -12.0943  -27.7888   28.4662 C   0  0  0  0  0  0  0  0  0  0  0  0
  -11.4156  -26.6018   29.1257 C   0  0  0  0  0  0  0  0  0  0  0  0
  -12.3761  -25.4197   29.2253 C   0  0  0  0  0  0  0  0  0  0  0  0
  -11.7823  -24.1440   29.5833 N   0  0  0  0  0  0  0  0  0  0  0  0
  -11.4985  -23.1510   28.6840 C   0  0  0  0  0  0  0  0  0  0  0  0
  -10.7879  -23.6837   27.6656 N   0  0  0  0  0  0  0  0  0  0  0  0
  -11.1634  -24.6066   26.6474 C   0  0  0  0  0  0  0  0  0  0  0  0
  -12.2296  -25.0886   26.3767 O   0  0  0  0  0  0  0  0  0  0  0  0
   -9.9956  -25.1178   25.8683 C   0  0  0  0  0  0  0  0  0  0  0  0
   -8.8780  -25.8409   26.5864 C   0  0  0  0  0  0  0  0  0  0  0  0
   -8.8163  -27.1955   26.6604 C   0  0  0  0  0  0  0  0  0  0  0  0
   -7.1906  -27.8192   26.8839 S   0  0  0  0  0  0  0  0  0  0  0  0
   -6.6294  -26.1909   27.0328 C   0  0  0  0  0  0  0  0  0  0  0  0
   -5.4780  -25.6523   27.3146 N   0  0  0  0  0  0  0  0  0  0  0  0
   -5.7755  -24.3206   27.4424 C   0  0  0  0  0  0  0  0  0  0  0  0
   -7.1062  -24.0690   27.1679 C   0  0  0  0  0  0  0  0  0  0  0  0
   -7.6463  -25.2903   26.9027 N   0  0  0  0  0  0  0  0  0  0  0  0
  -11.4629  -22.0024   29.3430 N   0  0  0  0  0  0  0  0  0  0  0  0
  -11.5120  -22.3665   30.6798 C   0  0  0  0  0  0  0  0  0  0  0  0
  -11.6471  -21.7057   31.9037 C   0  0  0  0  0  0  0  0  0  0  0  0
  -11.4851  -22.4260   33.0879 C   0  0  0  0  0  0  0  0  0  0  0  0
  -10.8920  -23.6818   33.0579 C   0  0  0  0  0  0  0  0  0  0  0  0
  -10.5580  -24.2895   31.8568 C   0  0  0  0  0  0  0  0  0  0  0  0
  -11.1927  -23.7096   30.7464 C   0  0  0  0  0  0  0  0  0  0  0  0
  -11.4008  -28.6319   28.3945 H   0  0  0  0  0  0  0  0  0  0  0  0
  -12.9620  -28.1151   29.0485 H   0  0  0  0  0  0  0  0  0  0  0  0
  -12.4308  -27.5487   27.4533 H   0  0  0  0  0  0  0  0  0  0  0  0
  -10.5293  -26.3267   28.5619 H   0  0  0  0  0  0  0  0  0  0  0  0
  -11.0241  -26.9129   30.0968 H   0  0  0  0  0  0  0  0  0  0  0  0
  -13.2414  -25.6127   29.8589 H   0  0  0  0  0  0  0  0  0  0  0  0
  -12.9012  -25.2888   28.2958 H   0  0  0  0  0  0  0  0  0  0  0  0
   -9.8235  -23.4364   27.5433 H   0  0  0  0  0  0  0  0  0  0  0  0
   -9.6770  -24.4480   25.0887 H   0  0  0  0  0  0  0  0  0  0  0  0
  -10.5007  -25.9072   25.2960 H   0  0  0  0  0  0  0  0  0  0  0  0
   -9.6117  -27.8768   26.3808 H   0  0  0  0  0  0  0  0  0  0  0  0
   -5.0218  -23.6136   27.7584 H   0  0  0  0  0  0  0  0  0  0  0  0
   -7.6568  -23.1509   27.2245 H   0  0  0  0  0  0  0  0  0  0  0  0
  -11.8751  -20.6683   31.9912 H   0  0  0  0  0  0  0  0  0  0  0  0
  -11.7649  -21.9789   34.0384 H   0  0  0  0  0  0  0  0  0  0  0  0
  -10.7727  -24.2532   33.9713 H   0  0  0  0  0  0  0  0  0  0  0  0
  -10.1329  -25.2908   31.8548 H   0  0  0  0  0  0  0  0  0  0  0  0
  1  2  1  0
  2  3  1  0
  3  4  1  0
  4  5  1  0
  5  6  1  0
  6  7  1  0
  7  8  2  0
  7  9  1  0
  9 10  1  0
 10 11  2  0
 11 12  1  0
 12 13  1  0
 13 14  2  0
 14 15  1  0
 15 16  2  0
 16 17  1  0
  5 18  2  0
 18 19  1  0
 19 20  2  0
 20 21  1  0
 21 22  2  0
 22 23  1  0
 23 24  2  0
 24  4  1  0
 17 10  1  0
 24 19  1  0
 17 13  1  0
  1 25  1  0
  1 26  1  0
  1 27  1  0
  2 28  1  0
  2 29  1  0
  3 30  1  0
  3 31  1  0
  6 32  1  0
  9 33  1  0
  9 34  1  0
 11 35  1  0
 15 36  1  0
 16 37  1  0
 20 38  1  0
 21 39  1  0
 22 40  1  0
 23 41  1  0
M  END
>  <Energy>  (1349) 
102.94717429268594

>  <compound_id>  (1349) 
60348

>  <target_id>  (1349) 
1

>  <reference_id>  (1349) 
45

>  <inspiration_ids>  (1349) 
[52, 45]

>  <energy_score>  (1349) 
24.59503480955334

>  <distance_score>  (1349) 
2.772590014326234

>  <path>  (1349) 
/opt/xchem-fragalysis-2/maxwin/BulkDock/SCRATCH/511020/C60348-P45/C60348-P45.minimised.mol

>  <scratch_subdir>  (1349) 
/opt/xchem-fragalysis-2/maxwin/BulkDock/SCRATCH/511020/C60348-P45

>  <fragmenstein_runtime>  (1349) 
7.661684036254883

>  <fragmenstein_outcome>  (1349) 
too moved

>  <fragmenstein_mode>  (1349) 
expansion

>  <fragmenstein_error>  (1349) 


$$$$
C60349-P52
     RDKit          3D

 38 41  0  0  0  0  0  0  0  0999 V2000
  -11.2412  -22.5895   27.6054 C   0  0  0  0  0  0  0  0  0  0  0  0
  -10.2257  -22.4796   28.7431 C   0  0  0  0  0  0  0  0  0  0  0  0
   -9.9971  -23.6903   29.5582 N   0  0  0  0  0  0  0  0  0  0  0  0
  -10.7649  -24.7969   29.2643 C   0  0  0  0  0  0  0  0  0  0  0  0
  -10.1589  -25.6002   28.3532 N   0  0  0  0  0  0  0  0  0  0  0  0
  -10.5381  -26.8846   27.8222 C   0  0  0  0  0  0  0  0  0  0  0  0
  -11.5256  -27.5388   27.9876 O   0  0  0  0  0  0  0  0  0  0  0  0
   -9.1711  -27.4070   26.9306 C   0  0  0  0  0  0  0  0  0  0  0  0
   -8.8411  -29.2152   26.2894 C   0  0  0  0  0  0  0  0  0  0  0  0
   -9.2159  -30.3228   26.8954 C   0  0  0  0  0  0  0  0  0  0  0  0
   -8.0114  -29.5491   27.6949 S   0  0  0  0  0  0  0  0  0  0  0  0
   -7.0224  -28.6890   25.9738 C   0  0  0  0  0  0  0  0  0  0  0  0
   -5.8437  -28.7854   25.3773 N   0  0  0  0  0  0  0  0  0  0  0  0
   -6.0736  -29.6511   24.3117 C   0  0  0  0  0  0  0  0  0  0  0  0
   -7.4030  -30.0313   24.2857 C   0  0  0  0  0  0  0  0  0  0  0  0
   -7.9457  -29.2623   25.2537 N   0  0  0  0  0  0  0  0  0  0  0  0
  -11.8655  -24.6527   29.9921 N   0  0  0  0  0  0  0  0  0  0  0  0
  -11.4309  -23.8197   31.0527 C   0  0  0  0  0  0  0  0  0  0  0  0
  -11.9819  -23.1132   32.1257 C   0  0  0  0  0  0  0  0  0  0  0  0
  -11.1649  -22.7575   33.2130 C   0  0  0  0  0  0  0  0  0  0  0  0
   -9.8008  -23.0152   33.1772 C   0  0  0  0  0  0  0  0  0  0  0  0
   -9.2016  -23.4388   31.9959 C   0  0  0  0  0  0  0  0  0  0  0  0
  -10.0637  -23.6818   30.9342 C   0  0  0  0  0  0  0  0  0  0  0  0
  -11.3728  -21.6137   27.1297 H   0  0  0  0  0  0  0  0  0  0  0  0
  -12.2251  -22.9022   27.9666 H   0  0  0  0  0  0  0  0  0  0  0  0
  -10.9112  -23.2973   26.8385 H   0  0  0  0  0  0  0  0  0  0  0  0
  -10.5801  -21.6848   29.4090 H   0  0  0  0  0  0  0  0  0  0  0  0
   -9.2429  -22.2139   28.3531 H   0  0  0  0  0  0  0  0  0  0  0  0
   -9.2167  -25.3898   28.0650 H   0  0  0  0  0  0  0  0  0  0  0  0
   -9.3578  -26.7153   26.0981 H   0  0  0  0  0  0  0  0  0  0  0  0
   -8.2400  -26.9990   27.3175 H   0  0  0  0  0  0  0  0  0  0  0  0
   -9.0596  -31.3303   26.5313 H   0  0  0  0  0  0  0  0  0  0  0  0
   -5.2598  -29.9932   23.6828 H   0  0  0  0  0  0  0  0  0  0  0  0
   -7.9555  -30.7654   23.7200 H   0  0  0  0  0  0  0  0  0  0  0  0
  -13.0246  -22.8529   32.1601 H   0  0  0  0  0  0  0  0  0  0  0  0
  -11.6184  -22.3099   34.0961 H   0  0  0  0  0  0  0  0  0  0  0  0
   -9.1752  -22.8033   34.0373 H   0  0  0  0  0  0  0  0  0  0  0  0
   -8.1283  -23.5153   31.9180 H   0  0  0  0  0  0  0  0  0  0  0  0
  1  2  1  0
  2  3  1  0
  3  4  1  0
  4  5  1  0
  5  6  1  0
  6  7  2  0
  6  8  1  0
  8  9  1  0
  9 10  2  0
 10 11  1  0
 11 12  1  0
 12 13  2  0
 13 14  1  0
 14 15  2  0
 15 16  1  0
  4 17  2  0
 17 18  1  0
 18 19  2  0
 19 20  1  0
 20 21  2  0
 21 22  1  0
 22 23  2  0
 23  3  1  0
 16  9  1  0
 23 18  1  0
 16 12  1  0
  1 24  1  0
  1 25  1  0
  1 26  1  0
  2 27  1  0
  2 28  1  0
  5 29  1  0
  8 30  1  0
  8 31  1  0
 10 32  1  0
 14 33  1  0
 15 34  1  0
 19 35  1  0
 20 36  1  0
 21 37  1  0
 22 38  1  0
M  END
>  <Energy>  (1350) 
407.27761600010115

>  <compound_id>  (1350) 
60349

>  <target_id>  (1350) 
1

>  <reference_id>  (1350) 
52

>  <inspiration_ids>  (1350) 
[52, 45]

>  <energy_score>  (1350) 
325.2850280492866

>  <distance_score>  (1350) 
3.3985755531326305

>  <path>  (1350) 
/opt/xchem-fragalysis-2/maxwin/BulkDock/SCRATCH/511020/C60349-P52/C60349-P52.minimised.mol

>  <scratch_subdir>  (1350) 
/opt/xchem-fragalysis-2/maxwin/BulkDock/SCRATCH/511020/C60349-P52

>  <fragmenstein_runtime>  (1350) 
9.590210914611816

>  <fragmenstein_outcome>  (1350) 
too moved

>  <fragmenstein_mode>  (1350) 
expansion

>  <fragmenstein_error>  (1350) 


$$$$
C60349-P45
     RDKit          3D

 38 41  0  0  0  0  0  0  0  0999 V2000
  -13.3533  -26.6555   29.2294 C   0  0  0  0  0  0  0  0  0  0  0  0
  -11.8542  -26.3938   29.2348 C   0  0  0  0  0  0  0  0  0  0  0  0
  -11.4602  -24.9943   29.2176 N   0  0  0  0  0  0  0  0  0  0  0  0
  -11.0967  -24.3656   28.0775 C   0  0  0  0  0  0  0  0  0  0  0  0
  -10.2293  -25.0290   27.3173 N   0  0  0  0  0  0  0  0  0  0  0  0
   -9.3563  -26.1371   27.6292 C   0  0  0  0  0  0  0  0  0  0  0  0
   -9.2462  -26.7919   28.6265 O   0  0  0  0  0  0  0  0  0  0  0  0
   -8.5771  -26.5203   26.4530 C   0  0  0  0  0  0  0  0  0  0  0  0
   -7.1661  -26.6826   26.7371 C   0  0  0  0  0  0  0  0  0  0  0  0
   -6.4183  -27.7889   26.6295 C   0  0  0  0  0  0  0  0  0  0  0  0
   -4.7386  -27.4490   26.9434 S   0  0  0  0  0  0  0  0  0  0  0  0
   -5.1169  -25.7858   27.2331 C   0  0  0  0  0  0  0  0  0  0  0  0
   -4.5195  -24.7577   27.7588 N   0  0  0  0  0  0  0  0  0  0  0  0
   -5.5062  -23.8008   27.8240 C   0  0  0  0  0  0  0  0  0  0  0  0
   -6.7059  -24.2719   27.3516 C   0  0  0  0  0  0  0  0  0  0  0  0
   -6.4370  -25.5728   27.0668 N   0  0  0  0  0  0  0  0  0  0  0  0
  -11.4916  -23.1236   28.1026 N   0  0  0  0  0  0  0  0  0  0  0  0
  -11.5829  -22.9084   29.4628 C   0  0  0  0  0  0  0  0  0  0  0  0
  -11.8831  -21.7752   30.2016 C   0  0  0  0  0  0  0  0  0  0  0  0
  -11.7337  -21.7940   31.6014 C   0  0  0  0  0  0  0  0  0  0  0  0
  -11.1824  -22.8919   32.2480 C   0  0  0  0  0  0  0  0  0  0  0  0
  -10.7895  -24.0058   31.5181 C   0  0  0  0  0  0  0  0  0  0  0  0
  -11.2019  -24.0410   30.1687 C   0  0  0  0  0  0  0  0  0  0  0  0
  -13.5570  -27.6620   29.6111 H   0  0  0  0  0  0  0  0  0  0  0  0
  -13.7343  -26.6375   28.2068 H   0  0  0  0  0  0  0  0  0  0  0  0
  -13.9300  -25.9399   29.8134 H   0  0  0  0  0  0  0  0  0  0  0  0
  -11.5325  -26.8827   28.3118 H   0  0  0  0  0  0  0  0  0  0  0  0
  -11.3093  -26.9084   30.0292 H   0  0  0  0  0  0  0  0  0  0  0  0
   -9.9893  -24.6644   26.4062 H   0  0  0  0  0  0  0  0  0  0  0  0
   -9.0289  -27.4550   26.1031 H   0  0  0  0  0  0  0  0  0  0  0  0
   -8.6353  -25.6826   25.7568 H   0  0  0  0  0  0  0  0  0  0  0  0
   -6.7638  -28.7735   26.3401 H   0  0  0  0  0  0  0  0  0  0  0  0
   -5.3157  -22.8169   28.2137 H   0  0  0  0  0  0  0  0  0  0  0  0
   -7.6771  -23.8104   27.2842 H   0  0  0  0  0  0  0  0  0  0  0  0
  -12.2316  -20.9354   29.6303 H   0  0  0  0  0  0  0  0  0  0  0  0
  -11.9948  -20.9394   32.2134 H   0  0  0  0  0  0  0  0  0  0  0  0
  -11.0650  -22.8929   33.3278 H   0  0  0  0  0  0  0  0  0  0  0  0
  -10.3342  -24.8578   32.0217 H   0  0  0  0  0  0  0  0  0  0  0  0
  1  2  1  0
  2  3  1  0
  3  4  1  0
  4  5  1  0
  5  6  1  0
  6  7  2  0
  6  8  1  0
  8  9  1  0
  9 10  2  0
 10 11  1  0
 11 12  1  0
 12 13  2  0
 13 14  1  0
 14 15  2  0
 15 16  1  0
  4 17  2  0
 17 18  1  0
 18 19  2  0
 19 20  1  0
 20 21  2  0
 21 22  1  0
 22 23  2  0
 23  3  1  0
 16  9  1  0
 23 18  1  0
 16 12  1  0
  1 24  1  0
  1 25  1  0
  1 26  1  0
  2 27  1  0
  2 28  1  0
  5 29  1  0
  8 30  1  0
  8 31  1  0
 10 32  1  0
 14 33  1  0
 15 34  1  0
 19 35  1  0
 20 36  1  0
 21 37  1  0
 22 38  1  0
M  END
>  <Energy>  (1351) 
70.080097410337672

>  <compound_id>  (1351) 
60349

>  <target_id>  (1351) 
1

>  <reference_id>  (1351) 
45

>  <inspiration_ids>  (1351) 
[52, 45]

>  <energy_score>  (1351) 
-11.912490540475972

>  <distance_score>  (1351) 
3.24064562307271

>  <path>  (1351) 
/opt/xchem-fragalysis-2/maxwin/BulkDock/SCRATCH/511020/C60349-P45/C60349-P45.minimised.mol

>  <scratch_subdir>  (1351) 
/opt/xchem-fragalysis-2/maxwin/BulkDock/SCRATCH/511020/C60349-P45

>  <fragmenstein_runtime>  (1351) 
7.273451089859009

>  <fragmenstein_outcome>  (1351) 
too moved

>  <fragmenstein_mode>  (1351) 
expansion

>  <fragmenstein_error>  (1351) 


$$$$
C60350-P52
     RDKit          3D

 32 35  0  0  0  0  0  0  0  0999 V2000
  -11.2285  -21.2415   27.0813 O   0  0  0  0  0  0  0  0  0  0  0  0
  -11.8034  -22.1866   27.4318 C   0  0  0  0  0  0  0  0  0  0  0  0
  -11.9523  -23.3556   26.4487 C   0  0  0  0  0  0  0  0  0  0  0  0
  -11.2619  -24.5828   27.0011 C   0  0  0  0  0  0  0  0  0  0  0  0
  -11.7998  -25.8125   26.8858 C   0  0  0  0  0  0  0  0  0  0  0  0
  -11.3748  -26.8742   28.2079 S   0  0  0  0  0  0  0  0  0  0  0  0
  -10.3243  -25.6351   28.8138 C   0  0  0  0  0  0  0  0  0  0  0  0
   -9.6793  -25.4808   29.9298 N   0  0  0  0  0  0  0  0  0  0  0  0
   -9.1433  -24.2336   29.8176 C   0  0  0  0  0  0  0  0  0  0  0  0
   -9.5589  -23.6163   28.6592 C   0  0  0  0  0  0  0  0  0  0  0  0
  -10.3385  -24.5337   28.0340 N   0  0  0  0  0  0  0  0  0  0  0  0
  -12.3935  -22.5421   28.8098 N   0  0  0  0  0  0  0  0  0  0  0  0
  -12.3181  -21.8883   29.9928 C   0  0  0  0  0  0  0  0  0  0  0  0
  -11.1355  -21.5638   30.4498 N   0  0  0  0  0  0  0  0  0  0  0  0
  -11.2074  -21.8521   31.7661 C   0  0  0  0  0  0  0  0  0  0  0  0
  -10.2315  -22.3081   32.6407 C   0  0  0  0  0  0  0  0  0  0  0  0
  -10.6750  -22.7380   33.8647 C   0  0  0  0  0  0  0  0  0  0  0  0
   -9.6083  -23.9087   34.8110 Br  0  0  0  0  0  0  0  0  0  0  0  0
  -11.9379  -22.4327   34.3172 C   0  0  0  0  0  0  0  0  0  0  0  0
  -12.8860  -21.8451   33.4944 C   0  0  0  0  0  0  0  0  0  0  0  0
  -12.5186  -21.7768   32.1718 C   0  0  0  0  0  0  0  0  0  0  0  0
  -13.2335  -21.8308   31.0019 N   0  0  0  0  0  0  0  0  0  0  0  0
  -11.4770  -23.0747   25.5030 H   0  0  0  0  0  0  0  0  0  0  0  0
  -13.0109  -23.5378   26.2482 H   0  0  0  0  0  0  0  0  0  0  0  0
  -12.6220  -26.0690   26.2292 H   0  0  0  0  0  0  0  0  0  0  0  0
   -8.5301  -23.8205   30.6026 H   0  0  0  0  0  0  0  0  0  0  0  0
   -9.3960  -22.6110   28.2963 H   0  0  0  0  0  0  0  0  0  0  0  0
  -12.7585  -23.4826   28.7879 H   0  0  0  0  0  0  0  0  0  0  0  0
   -9.2275  -22.5255   32.3125 H   0  0  0  0  0  0  0  0  0  0  0  0
  -12.2661  -22.7512   35.2903 H   0  0  0  0  0  0  0  0  0  0  0  0
  -13.9035  -21.7025   33.8386 H   0  0  0  0  0  0  0  0  0  0  0  0
  -14.2291  -21.9962   30.9456 H   0  0  0  0  0  0  0  0  0  0  0  0
  1  2  2  0
  2  3  1  0
  3  4  1  0
  4  5  2  0
  5  6  1  0
  6  7  1  0
  7  8  2  0
  8  9  1  0
  9 10  2  0
 10 11  1  0
  2 12  1  0
 12 13  1  0
 13 14  2  0
 14 15  1  0
 15 16  2  0
 16 17  1  0
 17 18  1  0
 17 19  2  0
 19 20  1  0
 20 21  2  0
 21 22  1  0
 11  4  1  0
 22 13  1  0
 11  7  1  0
 21 15  1  0
  3 23  1  0
  3 24  1  0
  5 25  1  0
  9 26  1  0
 10 27  1  0
 12 28  1  0
 16 29  1  0
 19 30  1  0
 20 31  1  0
 22 32  1  0
M  END
>  <Energy>  (1352) 
79.109133369300395

>  <compound_id>  (1352) 
60350

>  <target_id>  (1352) 
1

>  <reference_id>  (1352) 
52

>  <inspiration_ids>  (1352) 
[52, 45]

>  <energy_score>  (1352) 
20.251507025051865

>  <distance_score>  (1352) 
3.5974306716199536

>  <path>  (1352) 
/opt/xchem-fragalysis-2/maxwin/BulkDock/SCRATCH/511020/C60350-P52/C60350-P52.minimised.mol

>  <scratch_subdir>  (1352) 
/opt/xchem-fragalysis-2/maxwin/BulkDock/SCRATCH/511020/C60350-P52

>  <fragmenstein_runtime>  (1352) 
5.50414776802063

>  <fragmenstein_outcome>  (1352) 
too moved

>  <fragmenstein_mode>  (1352) 
expansion

>  <fragmenstein_error>  (1352) 


$$$$
C60350-P45
     RDKit          3D

 32 35  0  0  0  0  0  0  0  0999 V2000
   -9.6359  -27.2936   29.1778 O   0  0  0  0  0  0  0  0  0  0  0  0
   -9.8799  -26.4664   28.3955 C   0  0  0  0  0  0  0  0  0  0  0  0
   -9.5625  -26.6768   26.9268 C   0  0  0  0  0  0  0  0  0  0  0  0
   -8.0663  -26.8024   26.8580 C   0  0  0  0  0  0  0  0  0  0  0  0
   -7.3475  -27.9265   26.6541 C   0  0  0  0  0  0  0  0  0  0  0  0
   -5.6081  -27.6477   26.7241 S   0  0  0  0  0  0  0  0  0  0  0  0
   -5.9047  -25.9711   27.0196 C   0  0  0  0  0  0  0  0  0  0  0  0
   -5.1699  -24.9418   27.3319 N   0  0  0  0  0  0  0  0  0  0  0  0
   -6.0797  -23.9380   27.5466 C   0  0  0  0  0  0  0  0  0  0  0  0
   -7.3689  -24.3937   27.3738 C   0  0  0  0  0  0  0  0  0  0  0  0
   -7.2354  -25.7134   27.0626 N   0  0  0  0  0  0  0  0  0  0  0  0
  -10.4245  -25.0379   28.5896 N   0  0  0  0  0  0  0  0  0  0  0  0
  -10.6745  -24.3468   29.7105 C   0  0  0  0  0  0  0  0  0  0  0  0
  -11.2752  -23.1928   29.8773 N   0  0  0  0  0  0  0  0  0  0  0  0
  -11.2779  -23.0002   31.2372 C   0  0  0  0  0  0  0  0  0  0  0  0
  -11.8267  -21.9751   31.9893 C   0  0  0  0  0  0  0  0  0  0  0  0
  -11.9438  -22.1538   33.3542 C   0  0  0  0  0  0  0  0  0  0  0  0
  -12.8173  -20.7997   34.3318 Br  0  0  0  0  0  0  0  0  0  0  0  0
  -11.4802  -23.3225   33.9467 C   0  0  0  0  0  0  0  0  0  0  0  0
  -10.6847  -24.2390   33.2566 C   0  0  0  0  0  0  0  0  0  0  0  0
  -10.6266  -24.0332   31.8945 C   0  0  0  0  0  0  0  0  0  0  0  0
  -10.1331  -24.8101   30.8866 N   0  0  0  0  0  0  0  0  0  0  0  0
   -9.9214  -25.8595   26.2958 H   0  0  0  0  0  0  0  0  0  0  0  0
  -10.0629  -27.5941   26.5974 H   0  0  0  0  0  0  0  0  0  0  0  0
   -7.7431  -28.9218   26.4896 H   0  0  0  0  0  0  0  0  0  0  0  0
   -5.7603  -22.9426   27.8251 H   0  0  0  0  0  0  0  0  0  0  0  0
   -8.3156  -23.8938   27.4774 H   0  0  0  0  0  0  0  0  0  0  0  0
  -10.5979  -24.6165   27.6858 H   0  0  0  0  0  0  0  0  0  0  0  0
  -12.2525  -21.1444   31.4753 H   0  0  0  0  0  0  0  0  0  0  0  0
  -11.7315  -23.5341   34.9800 H   0  0  0  0  0  0  0  0  0  0  0  0
  -10.3046  -25.1382   33.7295 H   0  0  0  0  0  0  0  0  0  0  0  0
   -9.6355  -25.6860   30.9961 H   0  0  0  0  0  0  0  0  0  0  0  0
  1  2  2  0
  2  3  1  0
  3  4  1  0
  4  5  2  0
  5  6  1  0
  6  7  1  0
  7  8  2  0
  8  9  1  0
  9 10  2  0
 10 11  1  0
  2 12  1  0
 12 13  1  0
 13 14  2  0
 14 15  1  0
 15 16  2  0
 16 17  1  0
 17 18  1  0
 17 19  2  0
 19 20  1  0
 20 21  2  0
 21 22  1  0
 11  4  1  0
 22 13  1  0
 11  7  1  0
 21 15  1  0
  3 23  1  0
  3 24  1  0
  5 25  1  0
  9 26  1  0
 10 27  1  0
 12 28  1  0
 16 29  1  0
 19 30  1  0
 20 31  1  0
 22 32  1  0
M  END
>  <Energy>  (1353) 
21.744320864428492

>  <compound_id>  (1353) 
60350

>  <target_id>  (1353) 
1

>  <reference_id>  (1353) 
45

>  <inspiration_ids>  (1353) 
[52, 45]

>  <energy_score>  (1353) 
-37.11330547982158

>  <distance_score>  (1353) 
2.415638518864465

>  <path>  (1353) 
/opt/xchem-fragalysis-2/maxwin/BulkDock/SCRATCH/511020/C60350-P45/C60350-P45.minimised.mol

>  <scratch_subdir>  (1353) 
/opt/xchem-fragalysis-2/maxwin/BulkDock/SCRATCH/511020/C60350-P45

>  <fragmenstein_runtime>  (1353) 
4.410059213638306

>  <fragmenstein_outcome>  (1353) 
too moved

>  <fragmenstein_mode>  (1353) 
expansion

>  <fragmenstein_error>  (1353) 


$$$$
C60351-P52
     RDKit          3D

 39 42  0  0  0  0  0  0  0  0999 V2000
  -12.4947  -22.8638   29.4772 C   0  0  0  0  0  0  0  0  0  0  0  0
  -12.3318  -22.6230   30.8747 N   0  0  0  0  0  0  0  0  0  0  0  0
  -12.8801  -21.5477   31.5066 C   0  0  0  0  0  0  0  0  0  0  0  0
  -12.3369  -21.3457   32.6746 N   0  0  0  0  0  0  0  0  0  0  0  0
  -11.5230  -22.4319   32.8500 C   0  0  0  0  0  0  0  0  0  0  0  0
  -10.7773  -22.7384   33.9821 C   0  0  0  0  0  0  0  0  0  0  0  0
   -9.9182  -23.8225   33.9399 C   0  0  0  0  0  0  0  0  0  0  0  0
   -9.9590  -24.7005   32.8603 C   0  0  0  0  0  0  0  0  0  0  0  0
  -10.8804  -24.5623   31.7819 C   0  0  0  0  0  0  0  0  0  0  0  0
  -11.0820  -25.8408   30.9608 C   0  0  0  0  0  0  0  0  0  0  0  0
  -12.3191  -26.0684   30.1900 N   0  0  0  0  0  0  0  0  0  0  0  0
  -12.3787  -27.4246   29.5324 C   0  0  0  0  0  0  0  0  0  0  0  0
  -11.3059  -27.7147   28.4615 C   0  0  0  0  0  0  0  0  0  0  0  0
  -10.6553  -28.9374   28.3720 C   0  0  0  0  0  0  0  0  0  0  0  0
   -9.3016  -29.1363   27.5874 C   0  0  0  0  0  0  0  0  0  0  0  0
   -8.7049  -27.9849   27.0926 C   0  0  0  0  0  0  0  0  0  0  0  0
   -9.4241  -26.6926   27.3230 N   0  0  0  0  0  0  0  0  0  0  0  0
   -9.0208  -25.6059   28.1427 C   0  0  0  0  0  0  0  0  0  0  0  0
   -9.9977  -24.6684   27.9681 C   0  0  0  0  0  0  0  0  0  0  0  0
  -11.1424  -25.3257   27.6431 N   0  0  0  0  0  0  0  0  0  0  0  0
  -10.7759  -26.6002   27.6841 C   0  0  0  0  0  0  0  0  0  0  0  0
  -11.5328  -23.3068   31.7541 C   0  0  0  0  0  0  0  0  0  0  0  0
  -11.6562  -23.4405   29.1476 H   0  0  0  0  0  0  0  0  0  0  0  0
  -13.4192  -23.4104   29.3084 H   0  0  0  0  0  0  0  0  0  0  0  0
  -12.4787  -21.9175   28.9356 H   0  0  0  0  0  0  0  0  0  0  0  0
  -13.6614  -20.9485   31.0691 H   0  0  0  0  0  0  0  0  0  0  0  0
  -10.8998  -22.1127   34.8514 H   0  0  0  0  0  0  0  0  0  0  0  0
   -9.2608  -24.0160   34.7757 H   0  0  0  0  0  0  0  0  0  0  0  0
   -9.3174  -25.5818   32.9056 H   0  0  0  0  0  0  0  0  0  0  0  0
  -10.1929  -25.9450   30.3528 H   0  0  0  0  0  0  0  0  0  0  0  0
  -11.0789  -26.6434   31.7071 H   0  0  0  0  0  0  0  0  0  0  0  0
  -12.2871  -25.4169   29.3993 H   0  0  0  0  0  0  0  0  0  0  0  0
  -13.3582  -27.4926   29.0441 H   0  0  0  0  0  0  0  0  0  0  0  0
  -12.3632  -28.1934   30.3139 H   0  0  0  0  0  0  0  0  0  0  0  0
  -11.0227  -29.7968   28.9141 H   0  0  0  0  0  0  0  0  0  0  0  0
   -8.8698  -30.1215   27.4888 H   0  0  0  0  0  0  0  0  0  0  0  0
   -7.7124  -27.9739   26.6656 H   0  0  0  0  0  0  0  0  0  0  0  0
   -8.0653  -25.6015   28.6404 H   0  0  0  0  0  0  0  0  0  0  0  0
   -9.9431  -23.6070   28.1672 H   0  0  0  0  0  0  0  0  0  0  0  0
  1  2  1  0
  2  3  1  0
  3  4  2  0
  4  5  1  0
  5  6  2  0
  6  7  1  0
  7  8  2  0
  8  9  1  0
  9 10  1  0
 10 11  1  0
 11 12  1  0
 12 13  1  0
 13 14  2  0
 14 15  1  0
 15 16  2  0
 16 17  1  0
 17 18  1  0
 18 19  2  0
 19 20  1  0
 20 21  2  0
  9 22  2  0
 22  2  1  0
 22  5  1  0
 21 13  1  0
 21 17  1  0
  1 23  1  0
  1 24  1  0
  1 25  1  0
  3 26  1  0
  6 27  1  0
  7 28  1  0
  8 29  1  0
 10 30  1  0
 10 31  1  0
 11 32  1  0
 12 33  1  0
 12 34  1  0
 14 35  1  0
 15 36  1  0
 16 37  1  0
 18 38  1  0
 19 39  1  0
M  END
>  <Energy>  (1354) 
112.29363253176366

>  <compound_id>  (1354) 
60351

>  <target_id>  (1354) 
1

>  <reference_id>  (1354) 
52

>  <inspiration_ids>  (1354) 
[52, 45]

>  <energy_score>  (1354) 
49.468087452573684

>  <distance_score>  (1354) 
2.463698478860301

>  <path>  (1354) 
/opt/xchem-fragalysis-2/maxwin/BulkDock/SCRATCH/511020/C60351-P52/C60351-P52.minimised.mol

>  <scratch_subdir>  (1354) 
/opt/xchem-fragalysis-2/maxwin/BulkDock/SCRATCH/511020/C60351-P52

>  <fragmenstein_runtime>  (1354) 
3.03115177154541

>  <fragmenstein_outcome>  (1354) 
too moved

>  <fragmenstein_mode>  (1354) 
expansion

>  <fragmenstein_error>  (1354) 


$$$$
C60351-P45
     RDKit          3D

 39 42  0  0  0  0  0  0  0  0999 V2000
  -11.5457  -23.0251   28.5019 C   0  0  0  0  0  0  0  0  0  0  0  0
  -11.5438  -22.9752   29.9338 N   0  0  0  0  0  0  0  0  0  0  0  0
  -12.1559  -21.9562   30.5849 C   0  0  0  0  0  0  0  0  0  0  0  0
  -12.0324  -22.0170   31.8789 N   0  0  0  0  0  0  0  0  0  0  0  0
  -11.2619  -23.1335   32.0781 C   0  0  0  0  0  0  0  0  0  0  0  0
  -10.9074  -23.7257   33.2910 C   0  0  0  0  0  0  0  0  0  0  0  0
  -10.0595  -24.8290   33.2837 C   0  0  0  0  0  0  0  0  0  0  0  0
   -9.6069  -25.3558   32.0841 C   0  0  0  0  0  0  0  0  0  0  0  0
  -10.0664  -24.9006   30.8196 C   0  0  0  0  0  0  0  0  0  0  0  0
   -9.5960  -25.7265   29.6418 C   0  0  0  0  0  0  0  0  0  0  0  0
  -10.2132  -25.5099   28.3423 N   0  0  0  0  0  0  0  0  0  0  0  0
   -9.9619  -26.6116   27.4038 C   0  0  0  0  0  0  0  0  0  0  0  0
   -8.5018  -26.8621   27.0727 C   0  0  0  0  0  0  0  0  0  0  0  0
   -8.1106  -28.1197   26.7554 C   0  0  0  0  0  0  0  0  0  0  0  0
   -6.7320  -28.4604   26.4637 C   0  0  0  0  0  0  0  0  0  0  0  0
   -5.7767  -27.5320   26.6176 C   0  0  0  0  0  0  0  0  0  0  0  0
   -6.1602  -26.2369   26.9347 N   0  0  0  0  0  0  0  0  0  0  0  0
   -5.3886  -25.1271   27.1619 C   0  0  0  0  0  0  0  0  0  0  0  0
   -6.2698  -24.1013   27.4052 C   0  0  0  0  0  0  0  0  0  0  0  0
   -7.5657  -24.5455   27.3504 N   0  0  0  0  0  0  0  0  0  0  0  0
   -7.4828  -25.8414   27.1031 C   0  0  0  0  0  0  0  0  0  0  0  0
  -10.9095  -23.7548   30.8640 C   0  0  0  0  0  0  0  0  0  0  0  0
  -10.5190  -22.9437   28.1503 H   0  0  0  0  0  0  0  0  0  0  0  0
  -12.0597  -23.9268   28.1704 H   0  0  0  0  0  0  0  0  0  0  0  0
  -12.0843  -22.1674   28.0984 H   0  0  0  0  0  0  0  0  0  0  0  0
  -12.6626  -21.2225   30.0001 H   0  0  0  0  0  0  0  0  0  0  0  0
  -11.3568  -23.3496   34.2025 H   0  0  0  0  0  0  0  0  0  0  0  0
   -9.7966  -25.3391   34.2035 H   0  0  0  0  0  0  0  0  0  0  0  0
   -8.9498  -26.2244   32.1311 H   0  0  0  0  0  0  0  0  0  0  0  0
   -8.5407  -25.4778   29.5525 H   0  0  0  0  0  0  0  0  0  0  0  0
   -9.7113  -26.7817   29.9191 H   0  0  0  0  0  0  0  0  0  0  0  0
   -9.7002  -24.7174   27.9382 H   0  0  0  0  0  0  0  0  0  0  0  0
  -10.4784  -26.3590   26.4696 H   0  0  0  0  0  0  0  0  0  0  0  0
  -10.4436  -27.5219   27.7825 H   0  0  0  0  0  0  0  0  0  0  0  0
   -8.8243  -28.9396   26.7037 H   0  0  0  0  0  0  0  0  0  0  0  0
   -6.5243  -29.4640   26.1144 H   0  0  0  0  0  0  0  0  0  0  0  0
   -4.7239  -27.7146   26.4401 H   0  0  0  0  0  0  0  0  0  0  0  0
   -4.3115  -25.1856   27.1420 H   0  0  0  0  0  0  0  0  0  0  0  0
   -6.0380  -23.0684   27.6303 H   0  0  0  0  0  0  0  0  0  0  0  0
  1  2  1  0
  2  3  1  0
  3  4  2  0
  4  5  1  0
  5  6  2  0
  6  7  1  0
  7  8  2  0
  8  9  1  0
  9 10  1  0
 10 11  1  0
 11 12  1  0
 12 13  1  0
 13 14  2  0
 14 15  1  0
 15 16  2  0
 16 17  1  0
 17 18  1  0
 18 19  2  0
 19 20  1  0
 20 21  2  0
  9 22  2  0
 22  2  1  0
 22  5  1  0
 21 13  1  0
 21 17  1  0
  1 23  1  0
  1 24  1  0
  1 25  1  0
  3 26  1  0
  6 27  1  0
  7 28  1  0
  8 29  1  0
 10 30  1  0
 10 31  1  0
 11 32  1  0
 12 33  1  0
 12 34  1  0
 14 35  1  0
 15 36  1  0
 16 37  1  0
 18 38  1  0
 19 39  1  0
M  END
>  <Energy>  (1355) 
47.84050607028373

>  <compound_id>  (1355) 
60351

>  <target_id>  (1355) 
1

>  <reference_id>  (1355) 
45

>  <inspiration_ids>  (1355) 
[52, 45]

>  <energy_score>  (1355) 
-14.985039008907222

>  <distance_score>  (1355) 
0.9810556814648731

>  <path>  (1355) 
/opt/xchem-fragalysis-2/maxwin/BulkDock/SCRATCH/511020/C60351-P45/C60351-P45.minimised.mol

>  <scratch_subdir>  (1355) 
/opt/xchem-fragalysis-2/maxwin/BulkDock/SCRATCH/511020/C60351-P45

>  <fragmenstein_runtime>  (1355) 
2.757061719894409

>  <fragmenstein_outcome>  (1355) 
acceptable

>  <fragmenstein_mode>  (1355) 
expansion

>  <fragmenstein_error>  (1355) 


$$$$
C60352-P52
     RDKit          3D

 35 38  0  0  0  0  0  0  0  0999 V2000
  -11.5198  -21.6843   28.0517 C   0  0  0  0  0  0  0  0  0  0  0  0
  -11.5983  -22.1887   29.4522 N   0  0  0  0  0  0  0  0  0  0  0  0
  -11.4769  -20.7336   29.7537 C   0  0  0  0  0  0  0  0  0  0  0  0
  -11.4394  -20.7120   31.2459 C   0  0  0  0  0  0  0  0  0  0  0  0
  -10.3040  -20.6020   31.8739 N   0  0  0  0  0  0  0  0  0  0  0  0
  -10.3886  -21.5907   32.7768 C   0  0  0  0  0  0  0  0  0  0  0  0
   -9.3949  -22.4195   33.2918 C   0  0  0  0  0  0  0  0  0  0  0  0
   -9.7406  -23.2587   34.3180 C   0  0  0  0  0  0  0  0  0  0  0  0
  -11.0037  -23.1346   34.8619 C   0  0  0  0  0  0  0  0  0  0  0  0
  -12.0560  -22.4228   34.2800 C   0  0  0  0  0  0  0  0  0  0  0  0
  -11.7090  -21.7354   33.1474 C   0  0  0  0  0  0  0  0  0  0  0  0
  -12.4125  -21.1453   32.1232 N   0  0  0  0  0  0  0  0  0  0  0  0
  -12.6797  -23.0606   29.5929 C   0  0  0  0  0  0  0  0  0  0  0  0
  -13.8048  -22.8504   29.9051 O   0  0  0  0  0  0  0  0  0  0  0  0
  -12.3366  -24.4119   29.1872 C   0  0  0  0  0  0  0  0  0  0  0  0
  -13.1259  -25.1042   28.3420 C   0  0  0  0  0  0  0  0  0  0  0  0
  -12.2606  -26.3734   27.4957 S   0  0  0  0  0  0  0  0  0  0  0  0
  -10.8233  -25.7984   28.2544 C   0  0  0  0  0  0  0  0  0  0  0  0
   -9.5611  -25.8557   27.9923 N   0  0  0  0  0  0  0  0  0  0  0  0
   -8.9954  -25.1765   29.0582 C   0  0  0  0  0  0  0  0  0  0  0  0
   -9.9234  -24.5559   29.8402 C   0  0  0  0  0  0  0  0  0  0  0  0
  -11.0739  -24.8830   29.2125 N   0  0  0  0  0  0  0  0  0  0  0  0
  -12.3909  -21.1577   27.7114 H   0  0  0  0  0  0  0  0  0  0  0  0
  -10.5733  -21.2053   27.8006 H   0  0  0  0  0  0  0  0  0  0  0  0
  -11.5088  -22.5729   27.4030 H   0  0  0  0  0  0  0  0  0  0  0  0
  -12.3345  -20.1248   29.4658 H   0  0  0  0  0  0  0  0  0  0  0  0
  -10.5255  -20.2826   29.4530 H   0  0  0  0  0  0  0  0  0  0  0  0
   -8.3786  -22.4051   32.9265 H   0  0  0  0  0  0  0  0  0  0  0  0
   -8.9906  -23.8836   34.7741 H   0  0  0  0  0  0  0  0  0  0  0  0
  -11.1609  -23.5961   35.8157 H   0  0  0  0  0  0  0  0  0  0  0  0
  -13.0538  -22.4126   34.6967 H   0  0  0  0  0  0  0  0  0  0  0  0
  -13.3785  -21.3631   31.9056 H   0  0  0  0  0  0  0  0  0  0  0  0
  -14.1246  -24.8352   28.0356 H   0  0  0  0  0  0  0  0  0  0  0  0
   -7.9354  -25.2001   29.2120 H   0  0  0  0  0  0  0  0  0  0  0  0
   -9.8560  -23.9188   30.7101 H   0  0  0  0  0  0  0  0  0  0  0  0
  1  2  1  0
  2  3  1  0
  3  4  1  0
  4  5  2  0
  5  6  1  0
  6  7  2  0
  7  8  1  0
  8  9  2  0
  9 10  1  0
 10 11  2  0
 11 12  1  0
  2 13  1  0
 13 14  2  0
 13 15  1  0
 15 16  2  0
 16 17  1  0
 17 18  1  0
 18 19  2  0
 19 20  1  0
 20 21  2  0
 21 22  1  0
 12  4  1  0
 22 15  1  0
 11  6  1  0
 22 18  1  0
  1 23  1  0
  1 24  1  0
  1 25  1  0
  3 26  1  0
  3 27  1  0
  7 28  1  0
  8 29  1  0
  9 30  1  0
 10 31  1  0
 12 32  1  0
 16 33  1  0
 20 34  1  0
 21 35  1  0
M  END
>  <Energy>  (1356) 
114.94893550617836

>  <compound_id>  (1356) 
60352

>  <target_id>  (1356) 
1

>  <reference_id>  (1356) 
52

>  <inspiration_ids>  (1356) 
[52, 45]

>  <energy_score>  (1356) 
71.85125355503249

>  <distance_score>  (1356) 
4.1902624331797025

>  <path>  (1356) 
/opt/xchem-fragalysis-2/maxwin/BulkDock/SCRATCH/511020/C60352-P52/C60352-P52.minimised.mol

>  <scratch_subdir>  (1356) 
/opt/xchem-fragalysis-2/maxwin/BulkDock/SCRATCH/511020/C60352-P52

>  <fragmenstein_runtime>  (1356) 
7.490051507949829

>  <fragmenstein_outcome>  (1356) 
too moved

>  <fragmenstein_mode>  (1356) 
expansion

>  <fragmenstein_error>  (1356) 


$$$$
C60352-P45
     RDKit          3D

 35 38  0  0  0  0  0  0  0  0999 V2000
   -8.8981  -24.7425   29.1944 C   0  0  0  0  0  0  0  0  0  0  0  0
   -9.3013  -26.1011   29.6111 N   0  0  0  0  0  0  0  0  0  0  0  0
   -8.8536  -25.5529   31.0289 C   0  0  0  0  0  0  0  0  0  0  0  0
   -9.5051  -24.3986   31.6498 C   0  0  0  0  0  0  0  0  0  0  0  0
   -9.3471  -23.6274   32.7709 N   0  0  0  0  0  0  0  0  0  0  0  0
  -10.6775  -23.1739   32.9567 C   0  0  0  0  0  0  0  0  0  0  0  0
  -11.5133  -22.7228   33.9397 C   0  0  0  0  0  0  0  0  0  0  0  0
  -11.6536  -23.7706   34.8490 C   0  0  0  0  0  0  0  0  0  0  0  0
  -11.2376  -25.0961   34.6521 C   0  0  0  0  0  0  0  0  0  0  0  0
  -10.8894  -25.4554   33.4262 C   0  0  0  0  0  0  0  0  0  0  0  0
  -11.1353  -24.3673   32.5502 C   0  0  0  0  0  0  0  0  0  0  0  0
  -10.7603  -24.0815   31.2705 N   0  0  0  0  0  0  0  0  0  0  0  0
  -10.5862  -26.4067   29.1010 C   0  0  0  0  0  0  0  0  0  0  0  0
  -11.6716  -26.2451   29.5788 O   0  0  0  0  0  0  0  0  0  0  0  0
  -10.4846  -26.9248   27.6819 C   0  0  0  0  0  0  0  0  0  0  0  0
  -11.4758  -26.2983   26.9965 C   0  0  0  0  0  0  0  0  0  0  0  0
  -10.8460  -25.1564   25.8012 S   0  0  0  0  0  0  0  0  0  0  0  0
   -9.2468  -25.6870   26.2190 C   0  0  0  0  0  0  0  0  0  0  0  0
   -8.0384  -25.2072   26.0880 N   0  0  0  0  0  0  0  0  0  0  0  0
   -7.2334  -26.1909   26.6536 C   0  0  0  0  0  0  0  0  0  0  0  0
   -7.9970  -27.2216   27.1625 C   0  0  0  0  0  0  0  0  0  0  0  0
   -9.2814  -26.7885   27.0180 N   0  0  0  0  0  0  0  0  0  0  0  0
   -9.7411  -24.0494   29.1341 H   0  0  0  0  0  0  0  0  0  0  0  0
   -7.8762  -24.4351   29.3949 H   0  0  0  0  0  0  0  0  0  0  0  0
   -8.7557  -24.7359   28.1379 H   0  0  0  0  0  0  0  0  0  0  0  0
   -7.7896  -25.4353   31.1755 H   0  0  0  0  0  0  0  0  0  0  0  0
   -9.0882  -26.4245   31.6513 H   0  0  0  0  0  0  0  0  0  0  0  0
  -11.7000  -21.6929   34.2002 H   0  0  0  0  0  0  0  0  0  0  0  0
  -11.7267  -23.5042   35.8703 H   0  0  0  0  0  0  0  0  0  0  0  0
  -11.1130  -25.8328   35.4180 H   0  0  0  0  0  0  0  0  0  0  0  0
  -10.5416  -26.4386   33.1559 H   0  0  0  0  0  0  0  0  0  0  0  0
  -11.2188  -24.3672   30.4129 H   0  0  0  0  0  0  0  0  0  0  0  0
  -12.4617  -26.0938   27.3964 H   0  0  0  0  0  0  0  0  0  0  0  0
   -6.1521  -26.1098   26.6421 H   0  0  0  0  0  0  0  0  0  0  0  0
   -7.7496  -28.1490   27.6446 H   0  0  0  0  0  0  0  0  0  0  0  0
  1  2  1  0
  2  3  1  0
  3  4  1  0
  4  5  2  0
  5  6  1  0
  6  7  2  0
  7  8  1  0
  8  9  2  0
  9 10  1  0
 10 11  2  0
 11 12  1  0
  2 13  1  0
 13 14  2  0
 13 15  1  0
 15 16  2  0
 16 17  1  0
 17 18  1  0
 18 19  2  0
 19 20  1  0
 20 21  2  0
 21 22  1  0
 12  4  1  0
 22 15  1  0
 11  6  1  0
 22 18  1  0
  1 23  1  0
  1 24  1  0
  1 25  1  0
  3 26  1  0
  3 27  1  0
  7 28  1  0
  8 29  1  0
  9 30  1  0
 10 31  1  0
 12 32  1  0
 16 33  1  0
 20 34  1  0
 21 35  1  0
M  END
>  <Energy>  (1357) 
323.43385165632338

>  <compound_id>  (1357) 
60352

>  <target_id>  (1357) 
1

>  <reference_id>  (1357) 
45

>  <inspiration_ids>  (1357) 
[52, 45]

>  <energy_score>  (1357) 
280.33616970517755

>  <distance_score>  (1357) 
3.216858935981218

>  <path>  (1357) 
/opt/xchem-fragalysis-2/maxwin/BulkDock/SCRATCH/511020/C60352-P45/C60352-P45.minimised.mol

>  <scratch_subdir>  (1357) 
/opt/xchem-fragalysis-2/maxwin/BulkDock/SCRATCH/511020/C60352-P45

>  <fragmenstein_runtime>  (1357) 
6.586454629898071

>  <fragmenstein_outcome>  (1357) 
too moved

>  <fragmenstein_mode>  (1357) 
expansion

>  <fragmenstein_error>  (1357) 


$$$$
C60354-P52
     RDKit          3D

 39 43  0  0  0  0  0  0  0  0999 V2000
  -12.1150  -28.4670   30.4632 O   0  0  0  0  0  0  0  0  0  0  0  0
  -11.5120  -27.9945   29.5673 C   0  0  0  0  0  0  0  0  0  0  0  0
  -11.0293  -26.5134   29.3320 N   0  0  0  0  0  0  0  0  0  0  0  0
  -11.1083  -25.3642   30.1826 C   0  0  0  0  0  0  0  0  0  0  0  0
  -10.4481  -25.3839   31.4370 C   0  0  0  0  0  0  0  0  0  0  0  0
  -10.4168  -24.3057   32.3425 C   0  0  0  0  0  0  0  0  0  0  0  0
  -11.2278  -23.2377   32.0086 C   0  0  0  0  0  0  0  0  0  0  0  0
  -11.6393  -22.1490   32.7288 N   0  0  0  0  0  0  0  0  0  0  0  0
  -12.6640  -21.5629   32.0374 C   0  0  0  0  0  0  0  0  0  0  0  0
  -13.5432  -20.6498   32.7065 C   0  0  0  0  0  0  0  0  0  0  0  0
  -14.8397  -20.2732   32.3967 C   0  0  0  0  0  0  0  0  0  0  0  0
  -15.2910  -19.3841   33.3986 C   0  0  0  0  0  0  0  0  0  0  0  0
  -14.2304  -19.2263   34.2520 C   0  0  0  0  0  0  0  0  0  0  0  0
  -13.1781  -19.9879   33.8579 O   0  0  0  0  0  0  0  0  0  0  0  0
  -12.7343  -22.0373   30.8024 N   0  0  0  0  0  0  0  0  0  0  0  0
  -11.8996  -23.1443   30.7942 C   0  0  0  0  0  0  0  0  0  0  0  0
  -11.7516  -24.1777   29.8215 C   0  0  0  0  0  0  0  0  0  0  0  0
  -11.0240  -29.0452   28.4867 C   0  0  0  0  0  0  0  0  0  0  0  0
  -11.8761  -30.0729   28.2744 C   0  0  0  0  0  0  0  0  0  0  0  0
  -11.5074  -31.2743   27.5389 C   0  0  0  0  0  0  0  0  0  0  0  0
  -10.2775  -31.4190   27.0347 C   0  0  0  0  0  0  0  0  0  0  0  0
   -9.3953  -30.3686   27.1319 N   0  0  0  0  0  0  0  0  0  0  0  0
   -8.3228  -30.1564   26.3215 C   0  0  0  0  0  0  0  0  0  0  0  0
   -7.9583  -28.8558   26.5184 C   0  0  0  0  0  0  0  0  0  0  0  0
   -8.9180  -28.2404   27.2337 N   0  0  0  0  0  0  0  0  0  0  0  0
   -9.6726  -29.1952   27.8243 C   0  0  0  0  0  0  0  0  0  0  0  0
  -10.6045  -26.4359   28.4102 H   0  0  0  0  0  0  0  0  0  0  0  0
   -9.8798  -26.2508   31.7428 H   0  0  0  0  0  0  0  0  0  0  0  0
   -9.8813  -24.3720   33.2833 H   0  0  0  0  0  0  0  0  0  0  0  0
  -11.4407  -21.9650   33.7015 H   0  0  0  0  0  0  0  0  0  0  0  0
  -15.4021  -20.6285   31.5525 H   0  0  0  0  0  0  0  0  0  0  0  0
  -16.2607  -18.9126   33.4759 H   0  0  0  0  0  0  0  0  0  0  0  0
  -14.0675  -18.6276   35.1347 H   0  0  0  0  0  0  0  0  0  0  0  0
  -12.2768  -24.0876   28.8777 H   0  0  0  0  0  0  0  0  0  0  0  0
  -12.8545  -30.0929   28.7519 H   0  0  0  0  0  0  0  0  0  0  0  0
  -12.2500  -32.0616   27.4445 H   0  0  0  0  0  0  0  0  0  0  0  0
   -9.9777  -32.2871   26.4591 H   0  0  0  0  0  0  0  0  0  0  0  0
   -7.9047  -30.9330   25.6959 H   0  0  0  0  0  0  0  0  0  0  0  0
   -7.0990  -28.3494   26.1108 H   0  0  0  0  0  0  0  0  0  0  0  0
  1  2  2  0
  2  3  1  0
  3  4  1  0
  4  5  2  0
  5  6  1  0
  6  7  2  0
  7  8  1  0
  8  9  1  0
  9 10  1  0
 10 11  2  0
 11 12  1  0
 12 13  2  0
 13 14  1  0
  9 15  2  0
 15 16  1  0
 16 17  2  0
  2 18  1  0
 18 19  2  0
 19 20  1  0
 20 21  2  0
 21 22  1  0
 22 23  1  0
 23 24  2  0
 24 25  1  0
 25 26  2  0
 17  4  1  0
 26 18  1  0
 16  7  1  0
 26 22  1  0
 14 10  1  0
  3 27  1  0
  5 28  1  0
  6 29  1  0
  8 30  1  0
 11 31  1  0
 12 32  1  0
 13 33  1  0
 17 34  1  0
 19 35  1  0
 20 36  1  0
 21 37  1  0
 23 38  1  0
 24 39  1  0
M  END
>  <Energy>  (1358) 
89.891281301276038

>  <compound_id>  (1358) 
60354

>  <target_id>  (1358) 
1

>  <reference_id>  (1358) 
52

>  <inspiration_ids>  (1358) 
[52, 45]

>  <energy_score>  (1358) 
7.66856154693744

>  <distance_score>  (1358) 
4.081266952894433

>  <path>  (1358) 
/opt/xchem-fragalysis-2/maxwin/BulkDock/SCRATCH/511020/C60354-P52/C60354-P52.minimised.mol

>  <scratch_subdir>  (1358) 
/opt/xchem-fragalysis-2/maxwin/BulkDock/SCRATCH/511020/C60354-P52

>  <fragmenstein_runtime>  (1358) 
6.989483594894409

>  <fragmenstein_outcome>  (1358) 
too moved

>  <fragmenstein_mode>  (1358) 
expansion

>  <fragmenstein_error>  (1358) 


$$$$
C60354-P45
     RDKit          3D

 39 43  0  0  0  0  0  0  0  0999 V2000
  -10.9381  -25.2797   27.3607 O   0  0  0  0  0  0  0  0  0  0  0  0
   -9.9718  -25.6052   27.9293 C   0  0  0  0  0  0  0  0  0  0  0  0
   -9.5668  -25.4149   29.4175 N   0  0  0  0  0  0  0  0  0  0  0  0
  -10.2004  -24.7309   30.4417 C   0  0  0  0  0  0  0  0  0  0  0  0
   -9.7261  -25.0079   31.7431 C   0  0  0  0  0  0  0  0  0  0  0  0
  -10.1920  -24.3120   32.8564 C   0  0  0  0  0  0  0  0  0  0  0  0
  -11.0780  -23.2665   32.6191 C   0  0  0  0  0  0  0  0  0  0  0  0
  -11.7832  -22.4486   33.4703 N   0  0  0  0  0  0  0  0  0  0  0  0
  -12.7014  -21.7637   32.7287 C   0  0  0  0  0  0  0  0  0  0  0  0
  -13.8524  -21.1627   33.3313 C   0  0  0  0  0  0  0  0  0  0  0  0
  -15.1692  -21.2302   32.9022 C   0  0  0  0  0  0  0  0  0  0  0  0
  -15.9418  -20.4434   33.7877 C   0  0  0  0  0  0  0  0  0  0  0  0
  -15.0595  -19.9448   34.7143 C   0  0  0  0  0  0  0  0  0  0  0  0
  -13.7997  -20.3864   34.4608 O   0  0  0  0  0  0  0  0  0  0  0  0
  -12.5135  -21.9691   31.4346 N   0  0  0  0  0  0  0  0  0  0  0  0
  -11.5419  -22.9401   31.3434 C   0  0  0  0  0  0  0  0  0  0  0  0
  -11.1411  -23.7093   30.2264 C   0  0  0  0  0  0  0  0  0  0  0  0
   -8.7703  -26.2659   27.3054 C   0  0  0  0  0  0  0  0  0  0  0  0
   -8.7529  -27.5839   27.0069 C   0  0  0  0  0  0  0  0  0  0  0  0
   -7.5139  -28.2593   26.6175 C   0  0  0  0  0  0  0  0  0  0  0  0
   -6.3616  -27.5662   26.6212 C   0  0  0  0  0  0  0  0  0  0  0  0
   -6.3891  -26.2129   26.9404 N   0  0  0  0  0  0  0  0  0  0  0  0
   -5.3543  -25.3219   27.0766 C   0  0  0  0  0  0  0  0  0  0  0  0
   -5.9307  -24.1456   27.4937 C   0  0  0  0  0  0  0  0  0  0  0  0
   -7.2856  -24.2768   27.6078 N   0  0  0  0  0  0  0  0  0  0  0  0
   -7.5515  -25.5213   27.2655 C   0  0  0  0  0  0  0  0  0  0  0  0
   -8.7035  -25.8872   29.5920 H   0  0  0  0  0  0  0  0  0  0  0  0
   -9.0147  -25.8164   31.9114 H   0  0  0  0  0  0  0  0  0  0  0  0
   -9.9095  -24.6499   33.8385 H   0  0  0  0  0  0  0  0  0  0  0  0
  -11.8199  -22.5439   34.4743 H   0  0  0  0  0  0  0  0  0  0  0  0
  -15.5106  -21.8052   32.0506 H   0  0  0  0  0  0  0  0  0  0  0  0
  -17.0089  -20.2721   33.7626 H   0  0  0  0  0  0  0  0  0  0  0  0
  -15.1651  -19.3057   35.5805 H   0  0  0  0  0  0  0  0  0  0  0  0
  -11.5275  -23.4758   29.2398 H   0  0  0  0  0  0  0  0  0  0  0  0
   -9.6505  -28.1915   27.0860 H   0  0  0  0  0  0  0  0  0  0  0  0
   -7.5502  -29.3124   26.3492 H   0  0  0  0  0  0  0  0  0  0  0  0
   -5.4029  -27.9965   26.3579 H   0  0  0  0  0  0  0  0  0  0  0  0
   -4.3284  -25.6109   26.8910 H   0  0  0  0  0  0  0  0  0  0  0  0
   -5.4406  -23.2131   27.7363 H   0  0  0  0  0  0  0  0  0  0  0  0
  1  2  2  0
  2  3  1  0
  3  4  1  0
  4  5  2  0
  5  6  1  0
  6  7  2  0
  7  8  1  0
  8  9  1  0
  9 10  1  0
 10 11  2  0
 11 12  1  0
 12 13  2  0
 13 14  1  0
  9 15  2  0
 15 16  1  0
 16 17  2  0
  2 18  1  0
 18 19  2  0
 19 20  1  0
 20 21  2  0
 21 22  1  0
 22 23  1  0
 23 24  2  0
 24 25  1  0
 25 26  2  0
 17  4  1  0
 26 18  1  0
 16  7  1  0
 26 22  1  0
 14 10  1  0
  3 27  1  0
  5 28  1  0
  6 29  1  0
  8 30  1  0
 11 31  1  0
 12 32  1  0
 13 33  1  0
 17 34  1  0
 19 35  1  0
 20 36  1  0
 21 37  1  0
 23 38  1  0
 24 39  1  0
M  END
>  <Energy>  (1359) 
58.246301890737186

>  <compound_id>  (1359) 
60354

>  <target_id>  (1359) 
1

>  <reference_id>  (1359) 
45

>  <inspiration_ids>  (1359) 
[52, 45]

>  <energy_score>  (1359) 
-23.976417863597078

>  <distance_score>  (1359) 
1.8584858653284602

>  <path>  (1359) 
/opt/xchem-fragalysis-2/maxwin/BulkDock/SCRATCH/511020/C60354-P45/C60354-P45.minimised.mol

>  <scratch_subdir>  (1359) 
/opt/xchem-fragalysis-2/maxwin/BulkDock/SCRATCH/511020/C60354-P45

>  <fragmenstein_runtime>  (1359) 
5.721986770629883

>  <fragmenstein_outcome>  (1359) 
too moved

>  <fragmenstein_mode>  (1359) 
expansion

>  <fragmenstein_error>  (1359) 


$$$$
C60334-P52
     RDKit          3D

 35 38  0  0  0  0  0  0  0  0999 V2000
  -14.9653  -19.8220   34.1606 C   0  0  0  0  0  0  0  0  0  0  0  0
  -13.7137  -20.5312   33.8164 C   0  0  0  0  0  0  0  0  0  0  0  0
  -13.0328  -20.4332   32.7007 N   0  0  0  0  0  0  0  0  0  0  0  0
  -12.0745  -21.3953   32.8068 C   0  0  0  0  0  0  0  0  0  0  0  0
  -11.3083  -21.9562   31.8193 C   0  0  0  0  0  0  0  0  0  0  0  0
  -10.7719  -23.1929   32.1735 C   0  0  0  0  0  0  0  0  0  0  0  0
  -10.7914  -24.0813   31.1503 N   0  0  0  0  0  0  0  0  0  0  0  0
  -10.7354  -25.6252   31.1605 C   0  0  0  0  0  0  0  0  0  0  0  0
  -10.5867  -26.3690   32.0439 O   0  0  0  0  0  0  0  0  0  0  0  0
  -10.8160  -25.9942   29.7103 C   0  0  0  0  0  0  0  0  0  0  0  0
  -11.6265  -26.9722   29.2711 C   0  0  0  0  0  0  0  0  0  0  0  0
  -11.9181  -27.0334   27.8500 C   0  0  0  0  0  0  0  0  0  0  0  0
  -11.4936  -26.0777   26.9981 C   0  0  0  0  0  0  0  0  0  0  0  0
  -10.6727  -25.0389   27.4815 C   0  0  0  0  0  0  0  0  0  0  0  0
  -10.4418  -23.8179   27.0496 N   0  0  0  0  0  0  0  0  0  0  0  0
   -9.7112  -23.2290   28.0410 C   0  0  0  0  0  0  0  0  0  0  0  0
   -9.3042  -24.1639   28.9592 C   0  0  0  0  0  0  0  0  0  0  0  0
  -10.1882  -25.1838   28.7603 N   0  0  0  0  0  0  0  0  0  0  0  0
  -10.4693  -23.5875   33.4579 C   0  0  0  0  0  0  0  0  0  0  0  0
  -11.0924  -22.9043   34.4729 C   0  0  0  0  0  0  0  0  0  0  0  0
  -12.0141  -21.9430   34.0675 C   0  0  0  0  0  0  0  0  0  0  0  0
  -13.1337  -21.4454   34.6548 N   0  0  0  0  0  0  0  0  0  0  0  0
  -15.5448  -19.6115   33.2562 H   0  0  0  0  0  0  0  0  0  0  0  0
  -15.5910  -20.4170   34.8332 H   0  0  0  0  0  0  0  0  0  0  0  0
  -14.7372  -18.8700   34.6493 H   0  0  0  0  0  0  0  0  0  0  0  0
  -11.4541  -21.6321   30.7967 H   0  0  0  0  0  0  0  0  0  0  0  0
  -11.0158  -23.7585   30.2222 H   0  0  0  0  0  0  0  0  0  0  0  0
  -12.1852  -27.6111   29.9478 H   0  0  0  0  0  0  0  0  0  0  0  0
  -12.5921  -27.8137   27.5056 H   0  0  0  0  0  0  0  0  0  0  0  0
  -11.7956  -26.0625   25.9567 H   0  0  0  0  0  0  0  0  0  0  0  0
   -9.4584  -22.1831   28.0516 H   0  0  0  0  0  0  0  0  0  0  0  0
   -8.6768  -24.0886   29.8381 H   0  0  0  0  0  0  0  0  0  0  0  0
   -9.9145  -24.4964   33.6668 H   0  0  0  0  0  0  0  0  0  0  0  0
  -11.0316  -23.2417   35.4948 H   0  0  0  0  0  0  0  0  0  0  0  0
  -13.5192  -21.7935   35.5199 H   0  0  0  0  0  0  0  0  0  0  0  0
  1  2  1  0
  2  3  2  0
  3  4  1  0
  4  5  2  0
  5  6  1  0
  6  7  1  0
  7  8  1  0
  8  9  2  0
  8 10  1  0
 10 11  2  0
 11 12  1  0
 12 13  2  0
 13 14  1  0
 14 15  2  0
 15 16  1  0
 16 17  2  0
 17 18  1  0
  6 19  2  0
 19 20  1  0
 20 21  2  0
 21 22  1  0
 22  2  1  0
 21  4  1  0
 18 10  1  0
 18 14  1  0
  1 23  1  0
  1 24  1  0
  1 25  1  0
  5 26  1  0
  7 27  1  0
 11 28  1  0
 12 29  1  0
 13 30  1  0
 16 31  1  0
 17 32  1  0
 19 33  1  0
 20 34  1  0
 22 35  1  0
M  END
>  <Energy>  (1360) 
74.619794492900624

>  <compound_id>  (1360) 
60334

>  <target_id>  (1360) 
1

>  <reference_id>  (1360) 
52

>  <inspiration_ids>  (1360) 
[52, 45]

>  <energy_score>  (1360) 
12.165433930113068

>  <distance_score>  (1360) 
3.9023995564238727

>  <path>  (1360) 
/opt/xchem-fragalysis-2/maxwin/BulkDock/SCRATCH/511020/C60334-P52/C60334-P52.minimised.mol

>  <scratch_subdir>  (1360) 
/opt/xchem-fragalysis-2/maxwin/BulkDock/SCRATCH/511020/C60334-P52

>  <fragmenstein_runtime>  (1360) 
8.566123485565186

>  <fragmenstein_outcome>  (1360) 
too moved

>  <fragmenstein_mode>  (1360) 
expansion

>  <fragmenstein_error>  (1360) 


$$$$
C60334-P45
     RDKit          3D

 35 38  0  0  0  0  0  0  0  0999 V2000
  -12.3823  -20.8965   34.4822 C   0  0  0  0  0  0  0  0  0  0  0  0
  -12.0610  -21.7619   33.3329 C   0  0  0  0  0  0  0  0  0  0  0  0
  -11.2145  -22.7613   33.1901 N   0  0  0  0  0  0  0  0  0  0  0  0
  -11.2360  -23.0809   31.8534 C   0  0  0  0  0  0  0  0  0  0  0  0
  -10.6367  -24.0959   31.0888 C   0  0  0  0  0  0  0  0  0  0  0  0
  -10.8384  -24.0741   29.6756 C   0  0  0  0  0  0  0  0  0  0  0  0
  -10.1463  -24.8957   28.8115 N   0  0  0  0  0  0  0  0  0  0  0  0
   -9.6722  -26.3363   28.9785 C   0  0  0  0  0  0  0  0  0  0  0  0
   -9.8529  -27.0933   29.8396 O   0  0  0  0  0  0  0  0  0  0  0  0
   -8.7676  -26.6492   27.8164 C   0  0  0  0  0  0  0  0  0  0  0  0
   -8.7981  -27.9070   27.3291 C   0  0  0  0  0  0  0  0  0  0  0  0
   -7.6620  -28.4183   26.5910 C   0  0  0  0  0  0  0  0  0  0  0  0
   -6.5502  -27.6791   26.4461 C   0  0  0  0  0  0  0  0  0  0  0  0
   -6.5258  -26.3229   26.8682 C   0  0  0  0  0  0  0  0  0  0  0  0
   -5.5708  -25.4184   26.8157 N   0  0  0  0  0  0  0  0  0  0  0  0
   -6.0602  -24.3059   27.4183 C   0  0  0  0  0  0  0  0  0  0  0  0
   -7.3396  -24.5287   27.8455 C   0  0  0  0  0  0  0  0  0  0  0  0
   -7.6550  -25.8318   27.5068 N   0  0  0  0  0  0  0  0  0  0  0  0
  -11.4788  -23.0218   29.0621 C   0  0  0  0  0  0  0  0  0  0  0  0
  -12.0768  -22.0398   29.8110 C   0  0  0  0  0  0  0  0  0  0  0  0
  -12.0112  -22.1590   31.1797 C   0  0  0  0  0  0  0  0  0  0  0  0
  -12.7269  -21.5819   32.1736 N   0  0  0  0  0  0  0  0  0  0  0  0
  -11.8538  -21.1931   35.3787 H   0  0  0  0  0  0  0  0  0  0  0  0
  -12.0935  -19.8619   34.2675 H   0  0  0  0  0  0  0  0  0  0  0  0
  -13.4572  -20.9080   34.6858 H   0  0  0  0  0  0  0  0  0  0  0  0
   -9.9993  -24.8353   31.5692 H   0  0  0  0  0  0  0  0  0  0  0  0
   -9.8743  -24.5547   27.8982 H   0  0  0  0  0  0  0  0  0  0  0  0
   -9.5750  -28.6145   27.6016 H   0  0  0  0  0  0  0  0  0  0  0  0
   -7.6905  -29.4499   26.2470 H   0  0  0  0  0  0  0  0  0  0  0  0
   -5.6652  -28.0784   25.9634 H   0  0  0  0  0  0  0  0  0  0  0  0
   -5.4636  -23.4143   27.5496 H   0  0  0  0  0  0  0  0  0  0  0  0
   -7.9879  -23.8769   28.4024 H   0  0  0  0  0  0  0  0  0  0  0  0
  -11.5427  -22.9507   27.9776 H   0  0  0  0  0  0  0  0  0  0  0  0
  -12.5793  -21.2259   29.3202 H   0  0  0  0  0  0  0  0  0  0  0  0
  -13.6365  -21.1608   32.1092 H   0  0  0  0  0  0  0  0  0  0  0  0
  1  2  1  0
  2  3  2  0
  3  4  1  0
  4  5  2  0
  5  6  1  0
  6  7  1  0
  7  8  1  0
  8  9  2  0
  8 10  1  0
 10 11  2  0
 11 12  1  0
 12 13  2  0
 13 14  1  0
 14 15  2  0
 15 16  1  0
 16 17  2  0
 17 18  1  0
  6 19  2  0
 19 20  1  0
 20 21  2  0
 21 22  1  0
 22  2  1  0
 21  4  1  0
 18 10  1  0
 18 14  1  0
  1 23  1  0
  1 24  1  0
  1 25  1  0
  5 26  1  0
  7 27  1  0
 11 28  1  0
 12 29  1  0
 13 30  1  0
 16 31  1  0
 17 32  1  0
 19 33  1  0
 20 34  1  0
 22 35  1  0
M  END
>  <Energy>  (1361) 
54.039463621465785

>  <compound_id>  (1361) 
60334

>  <target_id>  (1361) 
1

>  <reference_id>  (1361) 
45

>  <inspiration_ids>  (1361) 
[52, 45]

>  <energy_score>  (1361) 
-8.414896941316954

>  <distance_score>  (1361) 
2.585783878051887

>  <path>  (1361) 
/opt/xchem-fragalysis-2/maxwin/BulkDock/SCRATCH/511020/C60334-P45/C60334-P45.minimised.mol

>  <scratch_subdir>  (1361) 
/opt/xchem-fragalysis-2/maxwin/BulkDock/SCRATCH/511020/C60334-P45

>  <fragmenstein_runtime>  (1361) 
7.126856803894043

>  <fragmenstein_outcome>  (1361) 
too moved

>  <fragmenstein_mode>  (1361) 
expansion

>  <fragmenstein_error>  (1361) 


$$$$
C60355-P52
     RDKit          3D

 36 39  0  0  0  0  0  0  0  0999 V2000
  -15.9447  -20.2948   34.6913 C   0  0  0  0  0  0  0  0  0  0  0  0
  -15.0160  -21.1714   35.3050 O   0  0  0  0  0  0  0  0  0  0  0  0
  -13.8424  -21.3252   34.6942 C   0  0  0  0  0  0  0  0  0  0  0  0
  -13.0578  -22.3513   34.9045 N   0  0  0  0  0  0  0  0  0  0  0  0
  -12.0369  -22.2348   34.0131 C   0  0  0  0  0  0  0  0  0  0  0  0
  -11.0916  -23.1817   33.6015 C   0  0  0  0  0  0  0  0  0  0  0  0
  -10.7112  -22.9610   32.3064 C   0  0  0  0  0  0  0  0  0  0  0  0
  -10.5282  -23.8741   31.3043 N   0  0  0  0  0  0  0  0  0  0  0  0
  -10.6543  -25.4152   31.3132 C   0  0  0  0  0  0  0  0  0  0  0  0
  -10.8581  -26.1526   32.1945 O   0  0  0  0  0  0  0  0  0  0  0  0
  -10.5588  -25.8135   29.8550 C   0  0  0  0  0  0  0  0  0  0  0  0
  -11.3352  -26.8284   29.4135 C   0  0  0  0  0  0  0  0  0  0  0  0
  -11.5865  -27.0229   28.0004 C   0  0  0  0  0  0  0  0  0  0  0  0
  -11.2015  -26.0722   27.1324 C   0  0  0  0  0  0  0  0  0  0  0  0
  -10.5011  -24.9902   27.6073 N   0  0  0  0  0  0  0  0  0  0  0  0
  -10.3681  -23.7384   27.0652 C   0  0  0  0  0  0  0  0  0  0  0  0
   -9.7764  -22.9878   28.0452 C   0  0  0  0  0  0  0  0  0  0  0  0
   -9.4073  -23.7664   29.0894 N   0  0  0  0  0  0  0  0  0  0  0  0
  -10.0129  -24.9151   28.8883 C   0  0  0  0  0  0  0  0  0  0  0  0
  -10.8024  -21.6893   31.7349 C   0  0  0  0  0  0  0  0  0  0  0  0
  -11.2959  -20.5969   32.3824 C   0  0  0  0  0  0  0  0  0  0  0  0
  -12.1211  -21.0006   33.3864 C   0  0  0  0  0  0  0  0  0  0  0  0
  -13.2274  -20.4068   33.9062 N   0  0  0  0  0  0  0  0  0  0  0  0
  -16.9171  -20.4379   35.1714 H   0  0  0  0  0  0  0  0  0  0  0  0
  -16.0590  -20.5014   33.6220 H   0  0  0  0  0  0  0  0  0  0  0  0
  -15.6439  -19.2526   34.8419 H   0  0  0  0  0  0  0  0  0  0  0  0
  -10.9837  -24.1368   34.0761 H   0  0  0  0  0  0  0  0  0  0  0  0
  -10.4310  -23.5499   30.3560 H   0  0  0  0  0  0  0  0  0  0  0  0
  -11.8939  -27.4512   30.1081 H   0  0  0  0  0  0  0  0  0  0  0  0
  -12.2382  -27.8397   27.7046 H   0  0  0  0  0  0  0  0  0  0  0  0
  -11.5072  -26.0600   26.0926 H   0  0  0  0  0  0  0  0  0  0  0  0
  -10.7835  -23.4823   26.1004 H   0  0  0  0  0  0  0  0  0  0  0  0
   -9.6031  -21.9276   28.1017 H   0  0  0  0  0  0  0  0  0  0  0  0
  -10.6412  -21.5424   30.6717 H   0  0  0  0  0  0  0  0  0  0  0  0
  -11.3379  -19.6328   31.9179 H   0  0  0  0  0  0  0  0  0  0  0  0
  -13.5904  -19.4994   33.6784 H   0  0  0  0  0  0  0  0  0  0  0  0
  1  2  1  0
  2  3  1  0
  3  4  2  0
  4  5  1  0
  5  6  2  0
  6  7  1  0
  7  8  1  0
  8  9  1  0
  9 10  2  0
  9 11  1  0
 11 12  2  0
 12 13  1  0
 13 14  2  0
 14 15  1  0
 15 16  1  0
 16 17  2  0
 17 18  1  0
 18 19  2  0
  7 20  2  0
 20 21  1  0
 21 22  2  0
 22 23  1  0
 23  3  1  0
 22  5  1  0
 19 11  1  0
 19 15  1  0
  1 24  1  0
  1 25  1  0
  1 26  1  0
  6 27  1  0
  8 28  1  0
 12 29  1  0
 13 30  1  0
 14 31  1  0
 16 32  1  0
 17 33  1  0
 20 34  1  0
 21 35  1  0
 23 36  1  0
M  END
>  <Energy>  (1362) 
78.938970623293073

>  <compound_id>  (1362) 
60355

>  <target_id>  (1362) 
1

>  <reference_id>  (1362) 
52

>  <inspiration_ids>  (1362) 
[52, 45]

>  <energy_score>  (1362) 
34.5206978225396

>  <distance_score>  (1362) 
4.0061601716695225

>  <path>  (1362) 
/opt/xchem-fragalysis-2/maxwin/BulkDock/SCRATCH/511020/C60355-P52/C60355-P52.minimised.mol

>  <scratch_subdir>  (1362) 
/opt/xchem-fragalysis-2/maxwin/BulkDock/SCRATCH/511020/C60355-P52

>  <fragmenstein_runtime>  (1362) 
10.611546039581299

>  <fragmenstein_outcome>  (1362) 
too moved

>  <fragmenstein_mode>  (1362) 
expansion

>  <fragmenstein_error>  (1362) 


$$$$
C60355-P45
     RDKit          3D

 36 39  0  0  0  0  0  0  0  0999 V2000
  -13.7899  -21.3034   34.2216 C   0  0  0  0  0  0  0  0  0  0  0  0
  -12.3678  -21.3879   34.1793 O   0  0  0  0  0  0  0  0  0  0  0  0
  -11.8872  -22.0667   33.1455 C   0  0  0  0  0  0  0  0  0  0  0  0
  -10.9926  -23.0261   33.1881 N   0  0  0  0  0  0  0  0  0  0  0  0
  -10.8901  -23.5014   31.9003 C   0  0  0  0  0  0  0  0  0  0  0  0
  -10.1311  -24.5481   31.3167 C   0  0  0  0  0  0  0  0  0  0  0  0
  -10.3403  -24.8022   29.9275 C   0  0  0  0  0  0  0  0  0  0  0  0
   -9.4863  -25.5654   29.1534 N   0  0  0  0  0  0  0  0  0  0  0  0
   -9.6971  -26.2102   27.7437 C   0  0  0  0  0  0  0  0  0  0  0  0
  -10.6512  -26.2556   27.0647 O   0  0  0  0  0  0  0  0  0  0  0  0
   -8.3809  -26.7246   27.2804 C   0  0  0  0  0  0  0  0  0  0  0  0
   -8.2274  -27.9986   26.8697 C   0  0  0  0  0  0  0  0  0  0  0  0
   -6.9192  -28.5001   26.4738 C   0  0  0  0  0  0  0  0  0  0  0  0
   -5.8502  -27.6890   26.5561 C   0  0  0  0  0  0  0  0  0  0  0  0
   -6.0368  -26.3658   26.9336 N   0  0  0  0  0  0  0  0  0  0  0  0
   -5.1195  -25.3639   27.1138 C   0  0  0  0  0  0  0  0  0  0  0  0
   -5.8403  -24.2618   27.5097 C   0  0  0  0  0  0  0  0  0  0  0  0
   -7.1724  -24.5571   27.5998 N   0  0  0  0  0  0  0  0  0  0  0  0
   -7.2737  -25.8275   27.2579 C   0  0  0  0  0  0  0  0  0  0  0  0
  -11.2569  -24.0654   29.1900 C   0  0  0  0  0  0  0  0  0  0  0  0
  -11.8930  -22.9690   29.7236 C   0  0  0  0  0  0  0  0  0  0  0  0
  -11.6841  -22.7320   31.0604 C   0  0  0  0  0  0  0  0  0  0  0  0
  -12.2652  -21.8221   31.8735 N   0  0  0  0  0  0  0  0  0  0  0  0
  -14.0591  -20.5573   34.9731 H   0  0  0  0  0  0  0  0  0  0  0  0
  -14.2335  -20.9615   33.2823 H   0  0  0  0  0  0  0  0  0  0  0  0
  -14.2224  -22.2698   34.4978 H   0  0  0  0  0  0  0  0  0  0  0  0
   -9.4266  -25.1182   31.9126 H   0  0  0  0  0  0  0  0  0  0  0  0
   -8.5167  -25.6382   29.4158 H   0  0  0  0  0  0  0  0  0  0  0  0
   -9.0636  -28.6925   26.8436 H   0  0  0  0  0  0  0  0  0  0  0  0
   -6.8478  -29.5232   26.1215 H   0  0  0  0  0  0  0  0  0  0  0  0
   -4.8434  -27.9896   26.2950 H   0  0  0  0  0  0  0  0  0  0  0  0
   -4.0644  -25.5394   26.9578 H   0  0  0  0  0  0  0  0  0  0  0  0
   -5.4683  -23.2776   27.7600 H   0  0  0  0  0  0  0  0  0  0  0  0
  -11.4006  -24.2388   28.1251 H   0  0  0  0  0  0  0  0  0  0  0  0
  -12.5316  -22.3528   29.1070 H   0  0  0  0  0  0  0  0  0  0  0  0
  -13.0674  -21.2904   31.6307 H   0  0  0  0  0  0  0  0  0  0  0  0
  1  2  1  0
  2  3  1  0
  3  4  2  0
  4  5  1  0
  5  6  2  0
  6  7  1  0
  7  8  1  0
  8  9  1  0
  9 10  2  0
  9 11  1  0
 11 12  2  0
 12 13  1  0
 13 14  2  0
 14 15  1  0
 15 16  1  0
 16 17  2  0
 17 18  1  0
 18 19  2  0
  7 20  2  0
 20 21  1  0
 21 22  2  0
 22 23  1  0
 23  3  1  0
 22  5  1  0
 19 11  1  0
 19 15  1  0
  1 24  1  0
  1 25  1  0
  1 26  1  0
  6 27  1  0
  8 28  1  0
 12 29  1  0
 13 30  1  0
 14 31  1  0
 16 32  1  0
 17 33  1  0
 20 34  1  0
 21 35  1  0
 23 36  1  0
M  END
>  <Energy>  (1363) 
49.225858265724995

>  <compound_id>  (1363) 
60355

>  <target_id>  (1363) 
1

>  <reference_id>  (1363) 
45

>  <inspiration_ids>  (1363) 
[52, 45]

>  <energy_score>  (1363) 
4.807585464970828

>  <distance_score>  (1363) 
2.073691691557912

>  <path>  (1363) 
/opt/xchem-fragalysis-2/maxwin/BulkDock/SCRATCH/511020/C60355-P45/C60355-P45.minimised.mol

>  <scratch_subdir>  (1363) 
/opt/xchem-fragalysis-2/maxwin/BulkDock/SCRATCH/511020/C60355-P45

>  <fragmenstein_runtime>  (1363) 
6.729297161102295

>  <fragmenstein_outcome>  (1363) 
too moved

>  <fragmenstein_mode>  (1363) 
expansion

>  <fragmenstein_error>  (1363) 


$$$$
C41402-P52
     RDKit          3D

 40 44  0  0  0  0  0  0  0  0999 V2000
   -9.4105  -23.2954   34.2006 C   0  0  0  0  0  0  0  0  0  0  0  0
  -10.5630  -23.4491   34.9206 C   0  0  0  0  0  0  0  0  0  0  0  0
  -11.7568  -22.8054   34.6098 C   0  0  0  0  0  0  0  0  0  0  0  0
  -11.7062  -21.9859   33.5210 C   0  0  0  0  0  0  0  0  0  0  0  0
  -12.6783  -21.4625   32.6940 N   0  0  0  0  0  0  0  0  0  0  0  0
  -11.9249  -21.1391   31.5912 C   0  0  0  0  0  0  0  0  0  0  0  0
  -11.7302  -22.0071   30.3331 C   0  0  0  0  0  0  0  0  0  0  0  0
  -11.4382  -21.0583   29.1683 C   0  0  0  0  0  0  0  0  0  0  0  0
  -12.4405  -21.7558   28.3868 N   0  0  0  0  0  0  0  0  0  0  0  0
  -11.8719  -22.3093   27.1781 C   0  0  0  0  0  0  0  0  0  0  0  0
  -11.1818  -23.6223   27.2503 C   0  0  0  0  0  0  0  0  0  0  0  0
  -11.6227  -24.5981   26.4461 C   0  0  0  0  0  0  0  0  0  0  0  0
  -11.0087  -25.8729   26.4204 C   0  0  0  0  0  0  0  0  0  0  0  0
  -10.0352  -26.1582   27.2903 C   0  0  0  0  0  0  0  0  0  0  0  0
   -9.6699  -25.1981   28.2155 N   0  0  0  0  0  0  0  0  0  0  0  0
   -8.7385  -25.1637   29.1963 C   0  0  0  0  0  0  0  0  0  0  0  0
   -8.8806  -23.9944   29.8582 C   0  0  0  0  0  0  0  0  0  0  0  0
   -9.5669  -23.1633   29.0564 N   0  0  0  0  0  0  0  0  0  0  0  0
  -10.1545  -23.9214   28.1706 C   0  0  0  0  0  0  0  0  0  0  0  0
  -12.8070  -22.6274   29.5061 C   0  0  0  0  0  0  0  0  0  0  0  0
  -10.7699  -20.6706   32.0168 N   0  0  0  0  0  0  0  0  0  0  0  0
  -10.5105  -21.6379   32.9182 C   0  0  0  0  0  0  0  0  0  0  0  0
   -9.3540  -22.3450   33.2208 C   0  0  0  0  0  0  0  0  0  0  0  0
   -8.5108  -23.7967   34.4842 H   0  0  0  0  0  0  0  0  0  0  0  0
  -10.5108  -24.0941   35.7685 H   0  0  0  0  0  0  0  0  0  0  0  0
  -12.6761  -22.9794   35.1444 H   0  0  0  0  0  0  0  0  0  0  0  0
  -13.6294  -21.8098   32.6920 H   0  0  0  0  0  0  0  0  0  0  0  0
  -11.0167  -22.7842   30.5885 H   0  0  0  0  0  0  0  0  0  0  0  0
  -11.7334  -20.0221   29.3578 H   0  0  0  0  0  0  0  0  0  0  0  0
  -10.4161  -21.0194   28.7890 H   0  0  0  0  0  0  0  0  0  0  0  0
  -11.2057  -21.5660   26.7490 H   0  0  0  0  0  0  0  0  0  0  0  0
  -12.6646  -22.3778   26.4285 H   0  0  0  0  0  0  0  0  0  0  0  0
  -12.4568  -24.4328   25.7696 H   0  0  0  0  0  0  0  0  0  0  0  0
  -11.3810  -26.4714   25.6066 H   0  0  0  0  0  0  0  0  0  0  0  0
   -9.4470  -27.0502   27.2087 H   0  0  0  0  0  0  0  0  0  0  0  0
   -7.9578  -25.8635   29.2947 H   0  0  0  0  0  0  0  0  0  0  0  0
   -8.3884  -23.6672   30.7592 H   0  0  0  0  0  0  0  0  0  0  0  0
  -12.7355  -23.7075   29.3484 H   0  0  0  0  0  0  0  0  0  0  0  0
  -13.7726  -22.4403   29.9639 H   0  0  0  0  0  0  0  0  0  0  0  0
   -8.4027  -22.2036   32.7464 H   0  0  0  0  0  0  0  0  0  0  0  0
  1  2  2  0
  2  3  1  0
  3  4  2  0
  4  5  1  0
  5  6  1  0
  6  7  1  0
  7  8  1  0
  8  9  1  0
  9 10  1  0
 10 11  1  0
 11 12  2  0
 12 13  1  0
 13 14  2  0
 14 15  1  0
 15 16  1  0
 16 17  2  0
 17 18  1  0
 18 19  2  0
  9 20  1  0
  6 21  2  0
 21 22  1  0
 22 23  2  0
 23  1  1  0
 22  4  1  0
 20  7  1  0
 19 11  1  0
 19 15  1  0
  1 24  1  0
  2 25  1  0
  3 26  1  0
  5 27  1  0
  7 28  1  0
  8 29  1  0
  8 30  1  0
 10 31  1  0
 10 32  1  0
 12 33  1  0
 13 34  1  0
 14 35  1  0
 16 36  1  0
 17 37  1  0
 20 38  1  0
 20 39  1  0
 23 40  1  0
M  END
>  <Energy>  (1364) 
143.72040002705239

>  <compound_id>  (1364) 
41402

>  <target_id>  (1364) 
1

>  <reference_id>  (1364) 
52

>  <inspiration_ids>  (1364) 
[52, 45]

>  <energy_score>  (1364) 
50.83389968750561

>  <distance_score>  (1364) 
3.303380830742445

>  <path>  (1364) 
/opt/xchem-fragalysis-2/maxwin/BulkDock/SCRATCH/511020/C41402-P52/C41402-P52.minimised.mol

>  <scratch_subdir>  (1364) 
/opt/xchem-fragalysis-2/maxwin/BulkDock/SCRATCH/511020/C41402-P52

>  <fragmenstein_runtime>  (1364) 
3.8869779109954834

>  <fragmenstein_outcome>  (1364) 
too moved

>  <fragmenstein_mode>  (1364) 
expansion

>  <fragmenstein_error>  (1364) 


$$$$
C41402-P45
     RDKit          3D

 40 44  0  0  0  0  0  0  0  0999 V2000
  -11.6166  -23.3551   34.2407 C   0  0  0  0  0  0  0  0  0  0  0  0
  -12.0788  -22.0729   33.9876 C   0  0  0  0  0  0  0  0  0  0  0  0
  -11.9838  -21.5230   32.7260 C   0  0  0  0  0  0  0  0  0  0  0  0
  -11.6037  -22.3723   31.7127 C   0  0  0  0  0  0  0  0  0  0  0  0
  -11.7531  -22.3870   30.3386 N   0  0  0  0  0  0  0  0  0  0  0  0
  -11.3624  -23.6317   29.9334 C   0  0  0  0  0  0  0  0  0  0  0  0
  -11.2566  -24.4330   28.6463 C   0  0  0  0  0  0  0  0  0  0  0  0
   -9.7738  -24.3137   28.2354 C   0  0  0  0  0  0  0  0  0  0  0  0
  -10.1471  -24.7185   26.8664 N   0  0  0  0  0  0  0  0  0  0  0  0
   -9.9906  -26.1838   26.8270 C   0  0  0  0  0  0  0  0  0  0  0  0
   -8.5143  -26.6606   26.8339 C   0  0  0  0  0  0  0  0  0  0  0  0
   -8.2843  -27.9828   26.6225 C   0  0  0  0  0  0  0  0  0  0  0  0
   -6.9535  -28.5450   26.4841 C   0  0  0  0  0  0  0  0  0  0  0  0
   -5.8825  -27.7534   26.6332 C   0  0  0  0  0  0  0  0  0  0  0  0
   -6.0827  -26.4100   26.8971 N   0  0  0  0  0  0  0  0  0  0  0  0
   -5.1495  -25.4307   27.1277 C   0  0  0  0  0  0  0  0  0  0  0  0
   -5.8669  -24.2934   27.3940 C   0  0  0  0  0  0  0  0  0  0  0  0
   -7.2041  -24.5326   27.2841 N   0  0  0  0  0  0  0  0  0  0  0  0
   -7.3393  -25.8177   27.0027 C   0  0  0  0  0  0  0  0  0  0  0  0
  -11.5137  -24.1665   27.1811 C   0  0  0  0  0  0  0  0  0  0  0  0
  -10.8113  -24.3014   30.9160 N   0  0  0  0  0  0  0  0  0  0  0  0
  -11.0194  -23.5894   32.0220 C   0  0  0  0  0  0  0  0  0  0  0  0
  -10.8954  -24.0682   33.3079 C   0  0  0  0  0  0  0  0  0  0  0  0
  -11.7781  -23.7992   35.2075 H   0  0  0  0  0  0  0  0  0  0  0  0
  -12.5328  -21.4789   34.7716 H   0  0  0  0  0  0  0  0  0  0  0  0
  -12.3418  -20.5393   32.5768 H   0  0  0  0  0  0  0  0  0  0  0  0
  -12.1810  -21.6807   29.7590 H   0  0  0  0  0  0  0  0  0  0  0  0
  -11.5882  -25.4573   28.8778 H   0  0  0  0  0  0  0  0  0  0  0  0
   -9.3609  -23.2996   28.2564 H   0  0  0  0  0  0  0  0  0  0  0  0
   -9.1148  -24.9586   28.8283 H   0  0  0  0  0  0  0  0  0  0  0  0
  -10.4868  -26.5399   25.9171 H   0  0  0  0  0  0  0  0  0  0  0  0
  -10.4983  -26.6995   27.6522 H   0  0  0  0  0  0  0  0  0  0  0  0
   -9.1086  -28.6762   26.4702 H   0  0  0  0  0  0  0  0  0  0  0  0
   -6.8713  -29.5909   26.2170 H   0  0  0  0  0  0  0  0  0  0  0  0
   -4.8593  -28.0876   26.5263 H   0  0  0  0  0  0  0  0  0  0  0  0
   -4.0899  -25.6426   27.1003 H   0  0  0  0  0  0  0  0  0  0  0  0
   -5.4934  -23.3144   27.6588 H   0  0  0  0  0  0  0  0  0  0  0  0
  -12.3317  -24.7251   26.7214 H   0  0  0  0  0  0  0  0  0  0  0  0
  -11.6278  -23.1072   26.9238 H   0  0  0  0  0  0  0  0  0  0  0  0
  -10.5156  -25.0612   33.5157 H   0  0  0  0  0  0  0  0  0  0  0  0
  1  2  2  0
  2  3  1  0
  3  4  2  0
  4  5  1  0
  5  6  1  0
  6  7  1  0
  7  8  1  0
  8  9  1  0
  9 10  1  0
 10 11  1  0
 11 12  2  0
 12 13  1  0
 13 14  2  0
 14 15  1  0
 15 16  1  0
 16 17  2  0
 17 18  1  0
 18 19  2  0
  9 20  1  0
  6 21  2  0
 21 22  1  0
 22 23  2  0
 23  1  1  0
 22  4  1  0
 20  7  1  0
 19 11  1  0
 19 15  1  0
  1 24  1  0
  2 25  1  0
  3 26  1  0
  5 27  1  0
  7 28  1  0
  8 29  1  0
  8 30  1  0
 10 31  1  0
 10 32  1  0
 12 33  1  0
 13 34  1  0
 14 35  1  0
 16 36  1  0
 17 37  1  0
 20 38  1  0
 20 39  1  0
 23 40  1  0
M  END
>  <Energy>  (1365) 
105.9282047410976

>  <compound_id>  (1365) 
41402

>  <target_id>  (1365) 
1

>  <reference_id>  (1365) 
45

>  <inspiration_ids>  (1365) 
[52, 45]

>  <energy_score>  (1365) 
13.041704401555023

>  <distance_score>  (1365) 
1.6733774375285448

>  <path>  (1365) 
/opt/xchem-fragalysis-2/maxwin/BulkDock/SCRATCH/511020/C41402-P45/C41402-P45.minimised.mol

>  <scratch_subdir>  (1365) 
/opt/xchem-fragalysis-2/maxwin/BulkDock/SCRATCH/511020/C41402-P45

>  <fragmenstein_runtime>  (1365) 
3.812138319015503

>  <fragmenstein_outcome>  (1365) 
too moved

>  <fragmenstein_mode>  (1365) 
expansion

>  <fragmenstein_error>  (1365) 


$$$$
C60356-P52
     RDKit          3D

 35 38  0  0  0  0  0  0  0  0999 V2000
   -9.4028  -23.2205   29.9502 O   0  0  0  0  0  0  0  0  0  0  0  0
  -10.1682  -23.0051   29.0985 C   0  0  0  0  0  0  0  0  0  0  0  0
  -11.1426  -21.8113   28.8981 N   0  0  0  0  0  0  0  0  0  0  0  0
  -11.4357  -20.6973   29.7501 C   0  0  0  0  0  0  0  0  0  0  0  0
  -11.7476  -21.1875   31.1033 C   0  0  0  0  0  0  0  0  0  0  0  0
  -11.1435  -20.7525   32.1852 N   0  0  0  0  0  0  0  0  0  0  0  0
  -10.7222  -21.9173   32.7457 C   0  0  0  0  0  0  0  0  0  0  0  0
   -9.6854  -22.1519   33.6190 C   0  0  0  0  0  0  0  0  0  0  0  0
   -9.4451  -23.4338   34.0659 C   0  0  0  0  0  0  0  0  0  0  0  0
   -8.6803  -23.5858   35.1499 F   0  0  0  0  0  0  0  0  0  0  0  0
   -9.9863  -24.5207   33.4205 C   0  0  0  0  0  0  0  0  0  0  0  0
  -10.9096  -24.3085   32.4011 C   0  0  0  0  0  0  0  0  0  0  0  0
  -11.3458  -23.0096   32.1822 C   0  0  0  0  0  0  0  0  0  0  0  0
  -12.2589  -22.4456   31.3306 N   0  0  0  0  0  0  0  0  0  0  0  0
  -10.3822  -23.9846   28.0735 C   0  0  0  0  0  0  0  0  0  0  0  0
  -10.5467  -23.5628   26.8325 C   0  0  0  0  0  0  0  0  0  0  0  0
  -11.0261  -24.4757   25.8743 C   0  0  0  0  0  0  0  0  0  0  0  0
  -11.3882  -25.7217   26.1780 C   0  0  0  0  0  0  0  0  0  0  0  0
  -11.1952  -26.1692   27.4989 C   0  0  0  0  0  0  0  0  0  0  0  0
  -11.6654  -27.2161   28.1251 N   0  0  0  0  0  0  0  0  0  0  0  0
  -11.3696  -26.9968   29.4321 C   0  0  0  0  0  0  0  0  0  0  0  0
  -10.5385  -25.9175   29.5719 C   0  0  0  0  0  0  0  0  0  0  0  0
  -10.5878  -25.3004   28.3723 N   0  0  0  0  0  0  0  0  0  0  0  0
  -11.7252  -21.9821   28.0910 H   0  0  0  0  0  0  0  0  0  0  0  0
  -10.5476  -20.0703   29.7813 H   0  0  0  0  0  0  0  0  0  0  0  0
  -12.2481  -20.1231   29.3208 H   0  0  0  0  0  0  0  0  0  0  0  0
   -9.0286  -21.3487   33.8854 H   0  0  0  0  0  0  0  0  0  0  0  0
   -9.6847  -25.5211   33.7055 H   0  0  0  0  0  0  0  0  0  0  0  0
  -11.3376  -25.1347   31.8578 H   0  0  0  0  0  0  0  0  0  0  0  0
  -12.7957  -22.9782   30.6678 H   0  0  0  0  0  0  0  0  0  0  0  0
  -10.5163  -22.5292   26.5575 H   0  0  0  0  0  0  0  0  0  0  0  0
  -11.1328  -23.9726   24.9450 H   0  0  0  0  0  0  0  0  0  0  0  0
  -11.8693  -26.3700   25.4635 H   0  0  0  0  0  0  0  0  0  0  0  0
  -11.7130  -27.6901   30.1879 H   0  0  0  0  0  0  0  0  0  0  0  0
   -9.9630  -25.5309   30.3966 H   0  0  0  0  0  0  0  0  0  0  0  0
  1  2  2  0
  2  3  1  0
  3  4  1  0
  4  5  1  0
  5  6  2  0
  6  7  1  0
  7  8  2  0
  8  9  1  0
  9 10  1  0
  9 11  2  0
 11 12  1  0
 12 13  2  0
 13 14  1  0
  2 15  1  0
 15 16  2  0
 16 17  1  0
 17 18  2  0
 18 19  1  0
 19 20  2  0
 20 21  1  0
 21 22  2  0
 22 23  1  0
 14  5  1  0
 23 15  1  0
 13  7  1  0
 23 19  1  0
  3 24  1  0
  4 25  1  0
  4 26  1  0
  8 27  1  0
 11 28  1  0
 12 29  1  0
 14 30  1  0
 16 31  1  0
 17 32  1  0
 18 33  1  0
 21 34  1  0
 22 35  1  0
M  END
>  <Energy>  (1366) 
67.332244337248753

>  <compound_id>  (1366) 
60356

>  <target_id>  (1366) 
1

>  <reference_id>  (1366) 
52

>  <inspiration_ids>  (1366) 
[52, 45]

>  <energy_score>  (1366) 
45.270474037859515

>  <distance_score>  (1366) 
3.8657816466994035

>  <path>  (1366) 
/opt/xchem-fragalysis-2/maxwin/BulkDock/SCRATCH/511020/C60356-P52/C60356-P52.minimised.mol

>  <scratch_subdir>  (1366) 
/opt/xchem-fragalysis-2/maxwin/BulkDock/SCRATCH/511020/C60356-P52

>  <fragmenstein_runtime>  (1366) 
8.12289571762085

>  <fragmenstein_outcome>  (1366) 
too moved

>  <fragmenstein_mode>  (1366) 
expansion

>  <fragmenstein_error>  (1366) 


$$$$
C60356-P45
     RDKit          3D

 35 38  0  0  0  0  0  0  0  0999 V2000
   -8.2657  -23.8125   28.1301 O   0  0  0  0  0  0  0  0  0  0  0  0
   -9.0955  -24.5397   27.6652 C   0  0  0  0  0  0  0  0  0  0  0  0
  -10.4973  -24.3367   27.4352 N   0  0  0  0  0  0  0  0  0  0  0  0
  -11.3634  -23.2347   27.7790 C   0  0  0  0  0  0  0  0  0  0  0  0
  -11.4158  -23.2001   29.2674 C   0  0  0  0  0  0  0  0  0  0  0  0
  -10.9663  -24.1449   30.0707 N   0  0  0  0  0  0  0  0  0  0  0  0
  -10.9991  -23.6140   31.3215 C   0  0  0  0  0  0  0  0  0  0  0  0
  -10.5746  -24.2223   32.5004 C   0  0  0  0  0  0  0  0  0  0  0  0
  -11.1883  -23.7434   33.6322 C   0  0  0  0  0  0  0  0  0  0  0  0
  -11.2190  -24.5477   34.6955 F   0  0  0  0  0  0  0  0  0  0  0  0
  -11.8434  -22.5182   33.6607 C   0  0  0  0  0  0  0  0  0  0  0  0
  -11.9985  -21.7587   32.5055 C   0  0  0  0  0  0  0  0  0  0  0  0
  -11.6490  -22.3870   31.3189 C   0  0  0  0  0  0  0  0  0  0  0  0
  -11.8340  -22.1098   29.9887 N   0  0  0  0  0  0  0  0  0  0  0  0
   -8.6832  -25.9504   27.3373 C   0  0  0  0  0  0  0  0  0  0  0  0
   -7.4106  -26.1553   26.9336 C   0  0  0  0  0  0  0  0  0  0  0  0
   -6.9644  -27.5029   26.6074 C   0  0  0  0  0  0  0  0  0  0  0  0
   -7.8196  -28.5405   26.6011 C   0  0  0  0  0  0  0  0  0  0  0  0
   -9.1551  -28.3458   27.0396 C   0  0  0  0  0  0  0  0  0  0  0  0
  -10.1648  -29.1839   27.1419 N   0  0  0  0  0  0  0  0  0  0  0  0
  -11.1495  -28.4959   27.7881 C   0  0  0  0  0  0  0  0  0  0  0  0
  -10.7399  -27.2211   28.0775 C   0  0  0  0  0  0  0  0  0  0  0  0
   -9.5065  -27.0745   27.4832 N   0  0  0  0  0  0  0  0  0  0  0  0
  -10.8704  -25.1374   26.9502 H   0  0  0  0  0  0  0  0  0  0  0  0
  -10.9851  -22.2921   27.3977 H   0  0  0  0  0  0  0  0  0  0  0  0
  -12.3455  -23.4367   27.3521 H   0  0  0  0  0  0  0  0  0  0  0  0
  -10.0694  -25.1813   32.5069 H   0  0  0  0  0  0  0  0  0  0  0  0
  -12.2741  -22.1688   34.5873 H   0  0  0  0  0  0  0  0  0  0  0  0
  -12.5251  -20.8293   32.5672 H   0  0  0  0  0  0  0  0  0  0  0  0
  -12.2186  -21.2680   29.5905 H   0  0  0  0  0  0  0  0  0  0  0  0
   -6.6942  -25.3444   26.8319 H   0  0  0  0  0  0  0  0  0  0  0  0
   -5.9299  -27.6378   26.3012 H   0  0  0  0  0  0  0  0  0  0  0  0
   -7.5096  -29.5379   26.3077 H   0  0  0  0  0  0  0  0  0  0  0  0
  -12.0843  -28.9707   28.0572 H   0  0  0  0  0  0  0  0  0  0  0  0
  -11.2154  -26.4392   28.6529 H   0  0  0  0  0  0  0  0  0  0  0  0
  1  2  2  0
  2  3  1  0
  3  4  1  0
  4  5  1  0
  5  6  2  0
  6  7  1  0
  7  8  2  0
  8  9  1  0
  9 10  1  0
  9 11  2  0
 11 12  1  0
 12 13  2  0
 13 14  1  0
  2 15  1  0
 15 16  2  0
 16 17  1  0
 17 18  2  0
 18 19  1  0
 19 20  2  0
 20 21  1  0
 21 22  2  0
 22 23  1  0
 14  5  1  0
 23 15  1  0
 13  7  1  0
 23 19  1  0
  3 24  1  0
  4 25  1  0
  4 26  1  0
  8 27  1  0
 11 28  1  0
 12 29  1  0
 14 30  1  0
 16 31  1  0
 17 32  1  0
 18 33  1  0
 21 34  1  0
 22 35  1  0
M  END
>  <Energy>  (1367) 
20.679450465609136

>  <compound_id>  (1367) 
60356

>  <target_id>  (1367) 
1

>  <reference_id>  (1367) 
45

>  <inspiration_ids>  (1367) 
[52, 45]

>  <energy_score>  (1367) 
-9.247510233636547

>  <distance_score>  (1367) 
3.3123939851505657

>  <path>  (1367) 
/opt/xchem-fragalysis-2/maxwin/BulkDock/SCRATCH/511020/C60356-P45/C60356-P45.minimised.mol

>  <scratch_subdir>  (1367) 
/opt/xchem-fragalysis-2/maxwin/BulkDock/SCRATCH/511020/C60356-P45

>  <fragmenstein_runtime>  (1367) 
12.80535626411438

>  <fragmenstein_outcome>  (1367) 
too moved

>  <fragmenstein_mode>  (1367) 
expansion

>  <fragmenstein_error>  (1367) 


$$$$
C60357-P52
     RDKit          3D

 31 34  0  0  0  0  0  0  0  0999 V2000
  -14.4478  -27.0032   28.5003 O   0  0  0  0  0  0  0  0  0  0  0  0
  -13.3537  -26.5461   28.7913 C   0  0  0  0  0  0  0  0  0  0  0  0
  -12.9864  -26.2647   30.0778 O   0  0  0  0  0  0  0  0  0  0  0  0
  -11.7327  -25.6813   30.5781 C   0  0  0  0  0  0  0  0  0  0  0  0
  -11.8014  -24.1922   30.7477 C   0  0  0  0  0  0  0  0  0  0  0  0
  -12.6052  -23.2966   30.1363 C   0  0  0  0  0  0  0  0  0  0  0  0
  -12.4303  -21.6419   30.7108 S   0  0  0  0  0  0  0  0  0  0  0  0
  -11.2676  -22.2026   31.8389 C   0  0  0  0  0  0  0  0  0  0  0  0
  -10.5038  -21.6275   32.7173 N   0  0  0  0  0  0  0  0  0  0  0  0
   -9.7597  -22.6781   33.2054 C   0  0  0  0  0  0  0  0  0  0  0  0
  -10.0919  -23.8766   32.6096 C   0  0  0  0  0  0  0  0  0  0  0  0
  -11.0522  -23.5404   31.7116 N   0  0  0  0  0  0  0  0  0  0  0  0
  -12.3876  -26.1636   27.7636 C   0  0  0  0  0  0  0  0  0  0  0  0
  -12.5182  -24.9009   27.1941 C   0  0  0  0  0  0  0  0  0  0  0  0
  -11.3488  -24.1773   27.3466 C   0  0  0  0  0  0  0  0  0  0  0  0
  -11.0713  -22.8406   27.3916 N   0  0  0  0  0  0  0  0  0  0  0  0
   -9.9369  -22.7113   28.1389 C   0  0  0  0  0  0  0  0  0  0  0  0
   -9.3688  -23.8694   28.3414 N   0  0  0  0  0  0  0  0  0  0  0  0
  -10.1657  -24.7706   27.7221 C   0  0  0  0  0  0  0  0  0  0  0  0
  -10.0118  -26.1252   27.5100 C   0  0  0  0  0  0  0  0  0  0  0  0
  -11.1740  -26.8190   27.7705 C   0  0  0  0  0  0  0  0  0  0  0  0
  -11.1153  -28.0910   28.1958 F   0  0  0  0  0  0  0  0  0  0  0  0
  -10.8580  -25.9938   30.0210 H   0  0  0  0  0  0  0  0  0  0  0  0
  -11.6008  -26.1570   31.5546 H   0  0  0  0  0  0  0  0  0  0  0  0
  -13.3451  -23.5304   29.3913 H   0  0  0  0  0  0  0  0  0  0  0  0
   -8.9904  -22.5251   33.9464 H   0  0  0  0  0  0  0  0  0  0  0  0
   -9.6906  -24.8729   32.7251 H   0  0  0  0  0  0  0  0  0  0  0  0
  -13.4825  -24.4168   27.0950 H   0  0  0  0  0  0  0  0  0  0  0  0
  -11.7001  -22.0835   27.1582 H   0  0  0  0  0  0  0  0  0  0  0  0
   -9.5990  -21.7482   28.4877 H   0  0  0  0  0  0  0  0  0  0  0  0
   -9.0382  -26.5726   27.4537 H   0  0  0  0  0  0  0  0  0  0  0  0
  1  2  2  0
  2  3  1  0
  3  4  1  0
  4  5  1  0
  5  6  2  0
  6  7  1  0
  7  8  1  0
  8  9  2  0
  9 10  1  0
 10 11  2  0
 11 12  1  0
  2 13  1  0
 13 14  2  0
 14 15  1  0
 15 16  1  0
 16 17  1  0
 17 18  2  0
 18 19  1  0
 19 20  1  0
 20 21  2  0
 21 22  1  0
 12  5  1  0
 21 13  1  0
 12  8  1  0
 19 15  2  0
  4 23  1  0
  4 24  1  0
  6 25  1  0
 10 26  1  0
 11 27  1  0
 14 28  1  0
 16 29  1  0
 17 30  1  0
 20 31  1  0
M  END
>  <Energy>  (1368) 
78.95839609585812

>  <compound_id>  (1368) 
60357

>  <target_id>  (1368) 
1

>  <reference_id>  (1368) 
52

>  <inspiration_ids>  (1368) 
[52, 45]

>  <energy_score>  (1368) 
22.217006195081012

>  <distance_score>  (1368) 
4.03784181044252

>  <path>  (1368) 
/opt/xchem-fragalysis-2/maxwin/BulkDock/SCRATCH/511020/C60357-P52/C60357-P52.minimised.mol

>  <scratch_subdir>  (1368) 
/opt/xchem-fragalysis-2/maxwin/BulkDock/SCRATCH/511020/C60357-P52

>  <fragmenstein_runtime>  (1368) 
6.706694602966309

>  <fragmenstein_outcome>  (1368) 
too moved

>  <fragmenstein_mode>  (1368) 
expansion

>  <fragmenstein_error>  (1368) 


$$$$
C60357-P45
     RDKit          3D

 31 34  0  0  0  0  0  0  0  0999 V2000
  -10.7985  -27.8096   27.4963 O   0  0  0  0  0  0  0  0  0  0  0  0
   -9.8044  -27.1718   27.7580 C   0  0  0  0  0  0  0  0  0  0  0  0
   -9.5297  -26.4230   28.8602 O   0  0  0  0  0  0  0  0  0  0  0  0
  -10.5665  -26.0827   29.7640 C   0  0  0  0  0  0  0  0  0  0  0  0
  -10.9890  -24.6483   29.5595 C   0  0  0  0  0  0  0  0  0  0  0  0
  -11.3370  -24.1247   28.3680 C   0  0  0  0  0  0  0  0  0  0  0  0
  -11.7670  -22.4340   28.4519 S   0  0  0  0  0  0  0  0  0  0  0  0
  -11.6469  -22.4865   30.1674 C   0  0  0  0  0  0  0  0  0  0  0  0
  -11.8686  -21.6428   31.1310 N   0  0  0  0  0  0  0  0  0  0  0  0
  -11.4911  -22.3328   32.2598 C   0  0  0  0  0  0  0  0  0  0  0  0
  -10.9732  -23.5762   31.9366 C   0  0  0  0  0  0  0  0  0  0  0  0
  -11.1566  -23.6883   30.5786 N   0  0  0  0  0  0  0  0  0  0  0  0
   -8.6100  -26.9098   26.9454 C   0  0  0  0  0  0  0  0  0  0  0  0
   -8.3609  -25.5398   26.7896 C   0  0  0  0  0  0  0  0  0  0  0  0
   -7.0400  -25.2095   26.9685 C   0  0  0  0  0  0  0  0  0  0  0  0
   -6.4697  -24.0245   27.3307 N   0  0  0  0  0  0  0  0  0  0  0  0
   -5.1936  -24.3170   27.6808 C   0  0  0  0  0  0  0  0  0  0  0  0
   -4.8423  -25.5269   27.3211 N   0  0  0  0  0  0  0  0  0  0  0  0
   -6.0032  -26.1344   26.9520 C   0  0  0  0  0  0  0  0  0  0  0  0
   -6.2727  -27.4892   26.7181 C   0  0  0  0  0  0  0  0  0  0  0  0
   -7.6116  -27.8723   26.8024 C   0  0  0  0  0  0  0  0  0  0  0  0
   -7.9132  -29.1724   26.8907 F   0  0  0  0  0  0  0  0  0  0  0  0
  -10.1395  -26.2256   30.7616 H   0  0  0  0  0  0  0  0  0  0  0  0
  -11.4181  -26.7612   29.6463 H   0  0  0  0  0  0  0  0  0  0  0  0
  -11.3738  -24.6567   27.4269 H   0  0  0  0  0  0  0  0  0  0  0  0
  -11.6014  -21.8998   33.2469 H   0  0  0  0  0  0  0  0  0  0  0  0
  -10.5595  -24.3634   32.5533 H   0  0  0  0  0  0  0  0  0  0  0  0
   -9.1353  -24.7929   26.8907 H   0  0  0  0  0  0  0  0  0  0  0  0
   -6.9462  -23.1518   27.5095 H   0  0  0  0  0  0  0  0  0  0  0  0
   -4.5702  -23.6200   28.2027 H   0  0  0  0  0  0  0  0  0  0  0  0
   -5.4723  -28.2136   26.6683 H   0  0  0  0  0  0  0  0  0  0  0  0
  1  2  2  0
  2  3  1  0
  3  4  1  0
  4  5  1  0
  5  6  2  0
  6  7  1  0
  7  8  1  0
  8  9  2  0
  9 10  1  0
 10 11  2  0
 11 12  1  0
  2 13  1  0
 13 14  2  0
 14 15  1  0
 15 16  1  0
 16 17  1  0
 17 18  2  0
 18 19  1  0
 19 20  1  0
 20 21  2  0
 21 22  1  0
 12  5  1  0
 21 13  1  0
 12  8  1  0
 19 15  2  0
  4 23  1  0
  4 24  1  0
  6 25  1  0
 10 26  1  0
 11 27  1  0
 14 28  1  0
 16 29  1  0
 17 30  1  0
 20 31  1  0
M  END
>  <Energy>  (1369) 
52.103827607649691

>  <compound_id>  (1369) 
60357

>  <target_id>  (1369) 
1

>  <reference_id>  (1369) 
45

>  <inspiration_ids>  (1369) 
[52, 45]

>  <energy_score>  (1369) 
-4.637562293127928

>  <distance_score>  (1369) 
1.9515988194948866

>  <path>  (1369) 
/opt/xchem-fragalysis-2/maxwin/BulkDock/SCRATCH/511020/C60357-P45/C60357-P45.minimised.mol

>  <scratch_subdir>  (1369) 
/opt/xchem-fragalysis-2/maxwin/BulkDock/SCRATCH/511020/C60357-P45

>  <fragmenstein_runtime>  (1369) 
4.736320734024048

>  <fragmenstein_outcome>  (1369) 
too moved

>  <fragmenstein_mode>  (1369) 
expansion

>  <fragmenstein_error>  (1369) 


$$$$
C11943-P115
     RDKit          3D

 44 45  0  0  0  0  0  0  0  0999 V2000
   -4.8772  -22.4451   25.2171 C   0  0  0  0  0  0  0  0  0  0  0  0
   -4.8187  -21.9612   26.6586 C   0  0  0  0  0  0  0  0  0  0  0  0
   -3.4699  -21.4211   27.0147 C   0  0  0  0  0  0  0  0  0  0  0  0
   -2.5636  -21.7279   27.9998 C   0  0  0  0  0  0  0  0  0  0  0  0
   -1.4436  -20.9087   27.9081 N   0  0  0  0  0  0  0  0  0  0  0  0
   -1.6651  -20.0138   26.9153 C   0  0  0  0  0  0  0  0  0  0  0  0
   -0.5055  -18.6891   26.2979 C   0  0  0  0  0  0  0  0  0  0  0  0
    0.7725  -18.8852   24.7572 C   0  0  0  0  0  0  0  0  0  0  0  0
    0.3416  -19.4284   23.6941 O   0  0  0  0  0  0  0  0  0  0  0  0
    2.3497  -18.1136   25.1000 N   0  0  0  0  0  0  0  0  0  0  0  0
    3.4250  -17.8413   24.2546 C   0  0  0  0  0  0  0  0  0  0  0  0
    3.5699  -19.4319   23.1308 C   0  0  0  0  0  0  0  0  0  0  0  0
    4.4819  -16.0141   24.2712 C   0  0  0  0  0  0  0  0  0  0  0  0
    4.6358  -14.5611   25.5820 N   0  0  0  0  0  0  0  0  0  0  0  0
    5.9136  -13.2383   25.7983 C   0  0  0  0  0  0  0  0  0  0  0  0
    6.8691  -13.1129   25.0659 O   0  0  0  0  0  0  0  0  0  0  0  0
    5.9979  -12.1732   26.9169 C   0  0  0  0  0  0  0  0  0  0  0  0
    6.7987  -11.0670   26.4496 C   0  0  0  0  0  0  0  0  0  0  0  0
    7.1908  -10.0023   27.2458 C   0  0  0  0  0  0  0  0  0  0  0  0
    6.8697   -9.9272   28.5317 N   0  0  0  0  0  0  0  0  0  0  0  0
    6.1408  -10.9556   28.9959 C   0  0  0  0  0  0  0  0  0  0  0  0
    5.6912  -12.0514   28.2339 C   0  0  0  0  0  0  0  0  0  0  0  0
   -2.8728  -20.3886   26.3191 N   0  0  0  0  0  0  0  0  0  0  0  0
   -5.8635  -22.8623   24.9949 H   0  0  0  0  0  0  0  0  0  0  0  0
   -4.1265  -23.2201   25.0288 H   0  0  0  0  0  0  0  0  0  0  0  0
   -4.6971  -21.6266   24.5118 H   0  0  0  0  0  0  0  0  0  0  0  0
   -5.0670  -22.7882   27.3271 H   0  0  0  0  0  0  0  0  0  0  0  0
   -5.5739  -21.1825   26.8169 H   0  0  0  0  0  0  0  0  0  0  0  0
   -2.6348  -22.4885   28.7659 H   0  0  0  0  0  0  0  0  0  0  0  0
   -0.1282  -18.0765   27.1202 H   0  0  0  0  0  0  0  0  0  0  0  0
   -1.3434  -18.0819   25.9394 H   0  0  0  0  0  0  0  0  0  0  0  0
    2.4041  -17.8479   26.1003 H   0  0  0  0  0  0  0  0  0  0  0  0
    3.9292  -18.2138   25.1517 H   0  0  0  0  0  0  0  0  0  0  0  0
    3.9953  -20.1853   23.8113 H   0  0  0  0  0  0  0  0  0  0  0  0
    4.3010  -19.4211   22.2938 H   0  0  0  0  0  0  0  0  0  0  0  0
    2.7326  -19.9462   22.6640 H   0  0  0  0  0  0  0  0  0  0  0  0
    5.5063  -16.2487   24.0587 H   0  0  0  0  0  0  0  0  0  0  0  0
    3.9623  -15.4492   23.5055 H   0  0  0  0  0  0  0  0  0  0  0  0
    3.8948  -14.4188   26.2546 H   0  0  0  0  0  0  0  0  0  0  0  0
    7.1424  -11.0168   25.4154 H   0  0  0  0  0  0  0  0  0  0  0  0
    7.7906   -9.1888   26.8507 H   0  0  0  0  0  0  0  0  0  0  0  0
    5.9375  -10.8836   30.0602 H   0  0  0  0  0  0  0  0  0  0  0  0
    5.1435  -12.8350   28.6904 H   0  0  0  0  0  0  0  0  0  0  0  0
   -3.2947  -19.8840   25.5506 H   0  0  0  0  0  0  0  0  0  0  0  0
  1  2  1  0
  2  3  1  0
  3  4  2  0
  4  5  1  0
  5  6  2  0
  6  7  1  0
  7  8  1  0
  8  9  2  0
  8 10  1  0
 10 11  1  0
 11 12  1  0
 11 13  1  0
 13 14  1  0
 14 15  1  0
 15 16  2  0
 15 17  1  0
 17 18  2  0
 18 19  1  0
 19 20  2  0
 20 21  1  0
 21 22  2  0
  6 23  1  0
 23  3  1  0
 22 17  1  0
  1 24  1  0
  1 25  1  0
  1 26  1  0
  2 27  1  0
  2 28  1  0
  4 29  1  0
  7 30  1  0
  7 31  1  0
 10 32  1  0
 11 33  1  0
 12 34  1  0
 12 35  1  0
 12 36  1  0
 13 37  1  0
 13 38  1  0
 14 39  1  0
 18 40  1  0
 19 41  1  0
 21 42  1  0
 22 43  1  0
 23 44  1  0
M  END
>  <Energy>  (1370) 
477.67580978951025

>  <compound_id>  (1370) 
11943

>  <target_id>  (1370) 
1

>  <reference_id>  (1370) 
115

>  <inspiration_ids>  (1370) 
[115, 71]

>  <energy_score>  (1370) 
442.105653092981

>  <distance_score>  (1370) 
17.312303858862524

>  <path>  (1370) 
/opt/xchem-fragalysis-2/maxwin/BulkDock/SCRATCH/511020/C11943-P115/C11943-P115.minimised.mol

>  <scratch_subdir>  (1370) 
/opt/xchem-fragalysis-2/maxwin/BulkDock/SCRATCH/511020/C11943-P115

>  <fragmenstein_runtime>  (1370) 
19.053580284118652

>  <fragmenstein_outcome>  (1370) 
too moved

>  <fragmenstein_mode>  (1370) 
expansion

>  <fragmenstein_error>  (1370) 


$$$$
C11943-P71
     RDKit          3D

 44 45  0  0  0  0  0  0  0  0999 V2000
   -1.4352  -15.1382   28.4449 C   0  0  0  0  0  0  0  0  0  0  0  0
   -2.2462  -15.8718   27.5023 C   0  0  0  0  0  0  0  0  0  0  0  0
   -2.2759  -14.9108   26.0341 C   0  0  0  0  0  0  0  0  0  0  0  0
   -2.6597  -15.5146   24.8668 C   0  0  0  0  0  0  0  0  0  0  0  0
   -1.7094  -15.2165   23.9856 N   0  0  0  0  0  0  0  0  0  0  0  0
   -0.8648  -14.3716   24.4573 C   0  0  0  0  0  0  0  0  0  0  0  0
    0.8353  -14.0894   24.0464 C   0  0  0  0  0  0  0  0  0  0  0  0
    2.5159  -13.1010   23.7603 C   0  0  0  0  0  0  0  0  0  0  0  0
    3.4190  -13.6237   24.3722 O   0  0  0  0  0  0  0  0  0  0  0  0
    2.5492  -11.8446   22.7052 N   0  0  0  0  0  0  0  0  0  0  0  0
    3.7284  -11.0578   22.1218 C   0  0  0  0  0  0  0  0  0  0  0  0
    4.2369  -11.6066   20.7609 C   0  0  0  0  0  0  0  0  0  0  0  0
    3.3188   -9.5865   21.7441 C   0  0  0  0  0  0  0  0  0  0  0  0
    3.9956   -8.5724   22.5267 N   0  0  0  0  0  0  0  0  0  0  0  0
    3.6396   -7.2224   22.8163 C   0  0  0  0  0  0  0  0  0  0  0  0
    2.6535   -6.6018   22.5545 O   0  0  0  0  0  0  0  0  0  0  0  0
    4.6877   -6.5037   23.5894 C   0  0  0  0  0  0  0  0  0  0  0  0
    6.0176   -6.4903   23.1689 C   0  0  0  0  0  0  0  0  0  0  0  0
    6.9240   -5.7862   23.9397 C   0  0  0  0  0  0  0  0  0  0  0  0
    6.5891   -5.1168   25.0640 N   0  0  0  0  0  0  0  0  0  0  0  0
    5.2894   -5.1360   25.4338 C   0  0  0  0  0  0  0  0  0  0  0  0
    4.3057   -5.8055   24.7332 C   0  0  0  0  0  0  0  0  0  0  0  0
   -1.5729  -13.8547   25.5168 N   0  0  0  0  0  0  0  0  0  0  0  0
   -0.9307  -14.4939   27.7882 H   0  0  0  0  0  0  0  0  0  0  0  0
   -0.5980  -15.5797   28.9864 H   0  0  0  0  0  0  0  0  0  0  0  0
   -2.1064  -14.7012   29.1859 H   0  0  0  0  0  0  0  0  0  0  0  0
   -3.1962  -16.1294   27.9838 H   0  0  0  0  0  0  0  0  0  0  0  0
   -1.9572  -16.9259   27.3226 H   0  0  0  0  0  0  0  0  0  0  0  0
   -3.4819  -16.1607   24.6497 H   0  0  0  0  0  0  0  0  0  0  0  0
    0.2098  -14.0598   23.1285 H   0  0  0  0  0  0  0  0  0  0  0  0
    0.9002  -13.8147   25.1444 H   0  0  0  0  0  0  0  0  0  0  0  0
    1.6406  -11.7112   22.3127 H   0  0  0  0  0  0  0  0  0  0  0  0
    4.5684  -10.9816   22.7744 H   0  0  0  0  0  0  0  0  0  0  0  0
    5.1867  -11.1369   20.4819 H   0  0  0  0  0  0  0  0  0  0  0  0
    3.5182  -11.4115   19.9569 H   0  0  0  0  0  0  0  0  0  0  0  0
    4.3735  -12.6852   20.7704 H   0  0  0  0  0  0  0  0  0  0  0  0
    3.5875   -9.3364   20.7106 H   0  0  0  0  0  0  0  0  0  0  0  0
    2.2382   -9.4275   21.8049 H   0  0  0  0  0  0  0  0  0  0  0  0
    4.9485   -8.7350   22.8309 H   0  0  0  0  0  0  0  0  0  0  0  0
    6.3406   -6.9835   22.2597 H   0  0  0  0  0  0  0  0  0  0  0  0
    7.9745   -5.7320   23.6657 H   0  0  0  0  0  0  0  0  0  0  0  0
    5.0553   -4.5784   26.3365 H   0  0  0  0  0  0  0  0  0  0  0  0
    3.2728   -5.7860   25.0643 H   0  0  0  0  0  0  0  0  0  0  0  0
   -0.9202  -13.1897   25.8520 H   0  0  0  0  0  0  0  0  0  0  0  0
  1  2  1  0
  2  3  1  0
  3  4  2  0
  4  5  1  0
  5  6  2  0
  6  7  1  0
  7  8  1  0
  8  9  2  0
  8 10  1  0
 10 11  1  0
 11 12  1  0
 11 13  1  0
 13 14  1  0
 14 15  1  0
 15 16  2  0
 15 17  1  0
 17 18  2  0
 18 19  1  0
 19 20  2  0
 20 21  1  0
 21 22  2  0
  6 23  1  0
 23  3  1  0
 22 17  1  0
  1 24  1  0
  1 25  1  0
  1 26  1  0
  2 27  1  0
  2 28  1  0
  4 29  1  0
  7 30  1  0
  7 31  1  0
 10 32  1  0
 11 33  1  0
 12 34  1  0
 12 35  1  0
 12 36  1  0
 13 37  1  0
 13 38  1  0
 14 39  1  0
 18 40  1  0
 19 41  1  0
 21 42  1  0
 22 43  1  0
 23 44  1  0
M  END
>  <Energy>  (1371) 
309.89711733800624

>  <compound_id>  (1371) 
11943

>  <target_id>  (1371) 
1

>  <reference_id>  (1371) 
71

>  <inspiration_ids>  (1371) 
[115, 71]

>  <energy_score>  (1371) 
274.3269606414842

>  <distance_score>  (1371) 
15.723433205987245

>  <path>  (1371) 
/opt/xchem-fragalysis-2/maxwin/BulkDock/SCRATCH/511020/C11943-P71/C11943-P71.minimised.mol

>  <scratch_subdir>  (1371) 
/opt/xchem-fragalysis-2/maxwin/BulkDock/SCRATCH/511020/C11943-P71

>  <fragmenstein_runtime>  (1371) 
34.10828137397766

>  <fragmenstein_outcome>  (1371) 
too moved

>  <fragmenstein_mode>  (1371) 
expansion

>  <fragmenstein_error>  (1371) 


$$$$
C11895-P115
     RDKit          3D

 44 45  0  0  0  0  0  0  0  0999 V2000
   -2.5271  -22.4983   28.4775 C   0  0  0  0  0  0  0  0  0  0  0  0
   -3.1647  -21.6553   27.3845 C   0  0  0  0  0  0  0  0  0  0  0  0
   -2.3777  -20.4300   27.0472 C   0  0  0  0  0  0  0  0  0  0  0  0
   -2.3743  -19.5635   26.0208 C   0  0  0  0  0  0  0  0  0  0  0  0
   -1.5604  -18.2932   26.1095 N   0  0  0  0  0  0  0  0  0  0  0  0
   -0.5719  -18.4047   26.9988 C   0  0  0  0  0  0  0  0  0  0  0  0
    1.2494  -17.5805   27.2554 C   0  0  0  0  0  0  0  0  0  0  0  0
    2.2612  -16.1272   27.9341 C   0  0  0  0  0  0  0  0  0  0  0  0
    1.7513  -15.7442   28.9311 O   0  0  0  0  0  0  0  0  0  0  0  0
    3.7630  -15.2503   27.1440 N   0  0  0  0  0  0  0  0  0  0  0  0
    4.7060  -13.5857   27.5882 C   0  0  0  0  0  0  0  0  0  0  0  0
    5.8838  -13.0933   26.3786 C   0  0  0  0  0  0  0  0  0  0  0  0
    5.1658  -12.0023   28.4182 C   0  0  0  0  0  0  0  0  0  0  0  0
    6.2976  -11.8367   29.3167 N   0  0  0  0  0  0  0  0  0  0  0  0
    7.6339  -11.3892   29.0711 C   0  0  0  0  0  0  0  0  0  0  0  0
    8.1888  -11.1111   28.0501 O   0  0  0  0  0  0  0  0  0  0  0  0
    8.4349  -11.2676   30.3154 C   0  0  0  0  0  0  0  0  0  0  0  0
    7.9452  -10.6560   31.4722 C   0  0  0  0  0  0  0  0  0  0  0  0
    8.7616  -10.5841   32.5989 C   0  0  0  0  0  0  0  0  0  0  0  0
   10.0371  -11.1245   32.5251 C   0  0  0  0  0  0  0  0  0  0  0  0
   10.5409  -11.7145   31.4186 N   0  0  0  0  0  0  0  0  0  0  0  0
    9.7332  -11.7585   30.3294 C   0  0  0  0  0  0  0  0  0  0  0  0
   -1.1267  -20.0433   27.4642 N   0  0  0  0  0  0  0  0  0  0  0  0
   -2.4745  -21.9493   29.4235 H   0  0  0  0  0  0  0  0  0  0  0  0
   -3.1158  -23.4041   28.6420 H   0  0  0  0  0  0  0  0  0  0  0  0
   -1.5120  -22.8094   28.2091 H   0  0  0  0  0  0  0  0  0  0  0  0
   -4.1790  -21.3701   27.6803 H   0  0  0  0  0  0  0  0  0  0  0  0
   -3.2711  -22.2697   26.4820 H   0  0  0  0  0  0  0  0  0  0  0  0
   -2.9064  -19.8360   25.1138 H   0  0  0  0  0  0  0  0  0  0  0  0
    0.9313  -17.6937   28.2858 H   0  0  0  0  0  0  0  0  0  0  0  0
    2.0891  -18.0895   26.8141 H   0  0  0  0  0  0  0  0  0  0  0  0
    4.0829  -15.7786   26.3636 H   0  0  0  0  0  0  0  0  0  0  0  0
    5.0780  -13.9832   28.4851 H   0  0  0  0  0  0  0  0  0  0  0  0
    6.9283  -13.3082   26.6413 H   0  0  0  0  0  0  0  0  0  0  0  0
    5.4739  -13.6925   25.5985 H   0  0  0  0  0  0  0  0  0  0  0  0
    5.9342  -12.0624   26.0347 H   0  0  0  0  0  0  0  0  0  0  0  0
    5.5145  -11.3093   27.6424 H   0  0  0  0  0  0  0  0  0  0  0  0
    4.3651  -11.3688   28.7955 H   0  0  0  0  0  0  0  0  0  0  0  0
    6.1470  -11.8958   30.3172 H   0  0  0  0  0  0  0  0  0  0  0  0
    6.9537  -10.2113   31.4952 H   0  0  0  0  0  0  0  0  0  0  0  0
    8.4176  -10.1062   33.5099 H   0  0  0  0  0  0  0  0  0  0  0  0
   10.7108  -11.0891   33.3771 H   0  0  0  0  0  0  0  0  0  0  0  0
   10.1703  -12.2206   29.4475 H   0  0  0  0  0  0  0  0  0  0  0  0
   -0.7871  -20.4174   28.3423 H   0  0  0  0  0  0  0  0  0  0  0  0
  1  2  1  0
  2  3  1  0
  3  4  2  0
  4  5  1  0
  5  6  2  0
  6  7  1  0
  7  8  1  0
  8  9  2  0
  8 10  1  0
 10 11  1  0
 11 12  1  0
 11 13  1  0
 13 14  1  0
 14 15  1  0
 15 16  2  0
 15 17  1  0
 17 18  2  0
 18 19  1  0
 19 20  2  0
 20 21  1  0
 21 22  2  0
  6 23  1  0
 23  3  1  0
 22 17  1  0
  1 24  1  0
  1 25  1  0
  1 26  1  0
  2 27  1  0
  2 28  1  0
  4 29  1  0
  7 30  1  0
  7 31  1  0
 10 32  1  0
 11 33  1  0
 12 34  1  0
 12 35  1  0
 12 36  1  0
 13 37  1  0
 13 38  1  0
 14 39  1  0
 18 40  1  0
 19 41  1  0
 20 42  1  0
 22 43  1  0
 23 44  1  0
M  END
>  <Energy>  (1372) 
587.15014703666213

>  <compound_id>  (1372) 
11895

>  <target_id>  (1372) 
1

>  <reference_id>  (1372) 
115

>  <inspiration_ids>  (1372) 
[115, 71]

>  <energy_score>  (1372) 
527.6282784256446

>  <distance_score>  (1372) 
16.28809341709459

>  <path>  (1372) 
/opt/xchem-fragalysis-2/maxwin/BulkDock/SCRATCH/511020/C11895-P115/C11895-P115.minimised.mol

>  <scratch_subdir>  (1372) 
/opt/xchem-fragalysis-2/maxwin/BulkDock/SCRATCH/511020/C11895-P115

>  <fragmenstein_runtime>  (1372) 
15.360476732254028

>  <fragmenstein_outcome>  (1372) 
too moved

>  <fragmenstein_mode>  (1372) 
expansion

>  <fragmenstein_error>  (1372) 


$$$$
C11895-P71
     RDKit          3D

 44 45  0  0  0  0  0  0  0  0999 V2000
   -8.7133  -22.9638   27.9906 C   0  0  0  0  0  0  0  0  0  0  0  0
   -7.1709  -22.5875   27.3396 C   0  0  0  0  0  0  0  0  0  0  0  0
   -6.2498  -21.4292   27.2943 C   0  0  0  0  0  0  0  0  0  0  0  0
   -6.4102  -20.1082   27.5415 C   0  0  0  0  0  0  0  0  0  0  0  0
   -5.2067  -19.5235   27.5392 N   0  0  0  0  0  0  0  0  0  0  0  0
   -4.2353  -20.3515   27.1161 C   0  0  0  0  0  0  0  0  0  0  0  0
   -2.6202  -19.7800   26.4955 C   0  0  0  0  0  0  0  0  0  0  0  0
   -1.6507  -18.1990   26.9454 C   0  0  0  0  0  0  0  0  0  0  0  0
   -2.3064  -17.2960   27.4266 O   0  0  0  0  0  0  0  0  0  0  0  0
   -0.0807  -18.3300   26.7434 N   0  0  0  0  0  0  0  0  0  0  0  0
    1.3520  -17.2104   27.3060 C   0  0  0  0  0  0  0  0  0  0  0  0
    2.7405  -17.9159   26.3285 C   0  0  0  0  0  0  0  0  0  0  0  0
    2.8912  -16.4429   27.7216 C   0  0  0  0  0  0  0  0  0  0  0  0
    3.8787  -15.0857   27.5589 N   0  0  0  0  0  0  0  0  0  0  0  0
    4.3530  -14.3015   26.2933 C   0  0  0  0  0  0  0  0  0  0  0  0
    4.0549  -14.4393   25.1392 O   0  0  0  0  0  0  0  0  0  0  0  0
    5.6630  -12.9909   26.6926 C   0  0  0  0  0  0  0  0  0  0  0  0
    6.6546  -12.4142   25.8590 C   0  0  0  0  0  0  0  0  0  0  0  0
    7.5782  -11.4234   26.2637 C   0  0  0  0  0  0  0  0  0  0  0  0
    7.4928  -10.9176   27.5305 C   0  0  0  0  0  0  0  0  0  0  0  0
    6.5450  -11.3273   28.3687 N   0  0  0  0  0  0  0  0  0  0  0  0
    5.6907  -12.3045   27.9171 C   0  0  0  0  0  0  0  0  0  0  0  0
   -4.8796  -21.5657   26.9175 N   0  0  0  0  0  0  0  0  0  0  0  0
   -8.8221  -23.7948   28.7002 H   0  0  0  0  0  0  0  0  0  0  0  0
   -9.3124  -23.5183   27.2331 H   0  0  0  0  0  0  0  0  0  0  0  0
   -9.4086  -22.1936   28.3150 H   0  0  0  0  0  0  0  0  0  0  0  0
   -6.4858  -23.2126   27.9032 H   0  0  0  0  0  0  0  0  0  0  0  0
   -7.1630  -22.9014   26.2920 H   0  0  0  0  0  0  0  0  0  0  0  0
   -7.2962  -19.5442   27.7974 H   0  0  0  0  0  0  0  0  0  0  0  0
   -2.7410  -19.9890   25.4312 H   0  0  0  0  0  0  0  0  0  0  0  0
   -2.0923  -20.5043   27.1207 H   0  0  0  0  0  0  0  0  0  0  0  0
    0.1185  -19.1638   26.2375 H   0  0  0  0  0  0  0  0  0  0  0  0
    1.0641  -17.3182   28.3501 H   0  0  0  0  0  0  0  0  0  0  0  0
    2.5782  -18.2037   25.2674 H   0  0  0  0  0  0  0  0  0  0  0  0
    3.2183  -18.7426   26.8171 H   0  0  0  0  0  0  0  0  0  0  0  0
    3.4963  -17.2257   26.0929 H   0  0  0  0  0  0  0  0  0  0  0  0
    2.2056  -15.7780   28.2402 H   0  0  0  0  0  0  0  0  0  0  0  0
    3.5390  -17.0643   28.3254 H   0  0  0  0  0  0  0  0  0  0  0  0
    4.3871  -14.7726   28.3528 H   0  0  0  0  0  0  0  0  0  0  0  0
    6.7660  -12.5913   24.8075 H   0  0  0  0  0  0  0  0  0  0  0  0
    8.3186  -11.0424   25.5669 H   0  0  0  0  0  0  0  0  0  0  0  0
    8.1650  -10.1499   27.8968 H   0  0  0  0  0  0  0  0  0  0  0  0
    4.9655  -12.5269   28.6657 H   0  0  0  0  0  0  0  0  0  0  0  0
   -4.4720  -22.3989   26.5208 H   0  0  0  0  0  0  0  0  0  0  0  0
  1  2  1  0
  2  3  1  0
  3  4  2  0
  4  5  1  0
  5  6  2  0
  6  7  1  0
  7  8  1  0
  8  9  2  0
  8 10  1  0
 10 11  1  0
 11 12  1  0
 11 13  1  0
 13 14  1  0
 14 15  1  0
 15 16  2  0
 15 17  1  0
 17 18  2  0
 18 19  1  0
 19 20  2  0
 20 21  1  0
 21 22  2  0
  6 23  1  0
 23  3  1  0
 22 17  1  0
  1 24  1  0
  1 25  1  0
  1 26  1  0
  2 27  1  0
  2 28  1  0
  4 29  1  0
  7 30  1  0
  7 31  1  0
 10 32  1  0
 11 33  1  0
 12 34  1  0
 12 35  1  0
 12 36  1  0
 13 37  1  0
 13 38  1  0
 14 39  1  0
 18 40  1  0
 19 41  1  0
 20 42  1  0
 22 43  1  0
 23 44  1  0
M  END
>  <Energy>  (1373) 
513.81193169738617

>  <compound_id>  (1373) 
11895

>  <target_id>  (1373) 
1

>  <reference_id>  (1373) 
71

>  <inspiration_ids>  (1373) 
[115, 71]

>  <energy_score>  (1373) 
454.29006308637554

>  <distance_score>  (1373) 
18.172989336920114

>  <path>  (1373) 
/opt/xchem-fragalysis-2/maxwin/BulkDock/SCRATCH/511020/C11895-P71/C11895-P71.minimised.mol

>  <scratch_subdir>  (1373) 
/opt/xchem-fragalysis-2/maxwin/BulkDock/SCRATCH/511020/C11895-P71

>  <fragmenstein_runtime>  (1373) 
15.640178442001343

>  <fragmenstein_outcome>  (1373) 
too moved

>  <fragmenstein_mode>  (1373) 
expansion

>  <fragmenstein_error>  (1373) 


$$$$
C7727-P115
     RDKit          3D

 41 42  0  0  0  0  0  0  0  0999 V2000
    6.3073   -0.4276   21.1118 C   0  0  0  0  0  0  0  0  0  0  0  0
    6.2371   -1.3659   19.9165 C   0  0  0  0  0  0  0  0  0  0  0  0
    5.5924   -2.6587   20.2731 C   0  0  0  0  0  0  0  0  0  0  0  0
    6.0828   -3.9066   20.5833 C   0  0  0  0  0  0  0  0  0  0  0  0
    5.0506   -4.8059   20.7487 N   0  0  0  0  0  0  0  0  0  0  0  0
    3.9202   -4.1210   20.6514 C   0  0  0  0  0  0  0  0  0  0  0  0
    2.4756   -4.6530   20.6277 C   0  0  0  0  0  0  0  0  0  0  0  0
    1.7872   -4.8721   22.0165 C   0  0  0  0  0  0  0  0  0  0  0  0
    2.1647   -4.2191   22.9522 O   0  0  0  0  0  0  0  0  0  0  0  0
    0.6735   -5.8463   21.9057 N   0  0  0  0  0  0  0  0  0  0  0  0
   -0.2698   -6.3977   22.9557 C   0  0  0  0  0  0  0  0  0  0  0  0
   -0.5053   -5.3737   24.0646 C   0  0  0  0  0  0  0  0  0  0  0  0
   -1.6659   -6.8790   22.3677 C   0  0  0  0  0  0  0  0  0  0  0  0
   -2.4531   -7.9576   23.0401 N   0  0  0  0  0  0  0  0  0  0  0  0
   -3.1367   -7.9808   24.3223 C   0  0  0  0  0  0  0  0  0  0  0  0
   -3.1748   -7.1683   25.1982 O   0  0  0  0  0  0  0  0  0  0  0  0
   -3.8581   -9.2738   24.6029 C   0  0  0  0  0  0  0  0  0  0  0  0
   -4.0833   -9.8685   25.8489 C   0  0  0  0  0  0  0  0  0  0  0  0
   -4.7326  -11.0992   25.8700 N   0  0  0  0  0  0  0  0  0  0  0  0
   -5.1073  -11.3961   24.6488 C   0  0  0  0  0  0  0  0  0  0  0  0
   -4.6505  -10.2593   23.4296 S   0  0  0  0  0  0  0  0  0  0  0  0
    4.2238   -2.8000   20.3808 N   0  0  0  0  0  0  0  0  0  0  0  0
    6.8688   -0.8734   21.9390 H   0  0  0  0  0  0  0  0  0  0  0  0
    5.3057   -0.1853   21.4838 H   0  0  0  0  0  0  0  0  0  0  0  0
    6.7958    0.5102   20.8312 H   0  0  0  0  0  0  0  0  0  0  0  0
    5.6600   -0.8824   19.1184 H   0  0  0  0  0  0  0  0  0  0  0  0
    7.2335   -1.5299   19.5074 H   0  0  0  0  0  0  0  0  0  0  0  0
    7.1125   -4.2274   20.6732 H   0  0  0  0  0  0  0  0  0  0  0  0
    2.4653   -5.5801   20.0507 H   0  0  0  0  0  0  0  0  0  0  0  0
    1.8474   -3.9368   20.0827 H   0  0  0  0  0  0  0  0  0  0  0  0
    0.6951   -6.2731   20.9871 H   0  0  0  0  0  0  0  0  0  0  0  0
    0.2455   -7.2721   23.3647 H   0  0  0  0  0  0  0  0  0  0  0  0
    0.4311   -5.0758   24.5436 H   0  0  0  0  0  0  0  0  0  0  0  0
   -0.9756   -4.4669   23.6693 H   0  0  0  0  0  0  0  0  0  0  0  0
   -1.1456   -5.7778   24.8508 H   0  0  0  0  0  0  0  0  0  0  0  0
   -1.4922   -7.2615   21.3550 H   0  0  0  0  0  0  0  0  0  0  0  0
   -2.3375   -6.0178   22.2744 H   0  0  0  0  0  0  0  0  0  0  0  0
   -2.7096   -8.7825   22.5140 H   0  0  0  0  0  0  0  0  0  0  0  0
   -3.7499   -9.4398   26.7889 H   0  0  0  0  0  0  0  0  0  0  0  0
   -5.6675  -12.2912   24.4098 H   0  0  0  0  0  0  0  0  0  0  0  0
    3.5396   -2.0678   20.2518 H   0  0  0  0  0  0  0  0  0  0  0  0
  1  2  1  0
  2  3  1  0
  3  4  2  0
  4  5  1  0
  5  6  2  0
  6  7  1  0
  7  8  1  0
  8  9  2  0
  8 10  1  0
 10 11  1  0
 11 12  1  0
 11 13  1  0
 13 14  1  0
 14 15  1  0
 15 16  2  0
 15 17  1  0
 17 18  2  0
 18 19  1  0
 19 20  2  0
 20 21  1  0
  6 22  1  0
 22  3  1  0
 21 17  1  0
  1 23  1  0
  1 24  1  0
  1 25  1  0
  2 26  1  0
  2 27  1  0
  4 28  1  0
  7 29  1  0
  7 30  1  0
 10 31  1  0
 11 32  1  0
 12 33  1  0
 12 34  1  0
 12 35  1  0
 13 36  1  0
 13 37  1  0
 14 38  1  0
 18 39  1  0
 20 40  1  0
 22 41  1  0
M  END
>  <Energy>  (1374) 
30.070563306129642

>  <compound_id>  (1374) 
7727

>  <target_id>  (1374) 
1

>  <reference_id>  (1374) 
115

>  <inspiration_ids>  (1374) 
[115, 71]

>  <energy_score>  (1374) 
-20.362593910985993

>  <distance_score>  (1374) 
15.036855950916156

>  <path>  (1374) 
/opt/xchem-fragalysis-2/maxwin/BulkDock/SCRATCH/511020/C7727-P115/C7727-P115.minimised.mol

>  <scratch_subdir>  (1374) 
/opt/xchem-fragalysis-2/maxwin/BulkDock/SCRATCH/511020/C7727-P115

>  <fragmenstein_runtime>  (1374) 
16.174002647399902

>  <fragmenstein_outcome>  (1374) 
too moved

>  <fragmenstein_mode>  (1374) 
expansion

>  <fragmenstein_error>  (1374) 


$$$$
C7727-P71
     RDKit          3D

 41 42  0  0  0  0  0  0  0  0999 V2000
   14.1369   -5.9247   23.6689 C   0  0  0  0  0  0  0  0  0  0  0  0
   12.7590   -5.4965   23.1898 C   0  0  0  0  0  0  0  0  0  0  0  0
   11.7846   -5.4238   24.3248 C   0  0  0  0  0  0  0  0  0  0  0  0
   11.5210   -4.4260   25.2364 C   0  0  0  0  0  0  0  0  0  0  0  0
   10.5478   -4.8204   26.1279 N   0  0  0  0  0  0  0  0  0  0  0  0
   10.1750   -6.0415   25.7828 C   0  0  0  0  0  0  0  0  0  0  0  0
    9.3288   -7.0314   26.5967 C   0  0  0  0  0  0  0  0  0  0  0  0
    7.8373   -6.6618   26.9122 C   0  0  0  0  0  0  0  0  0  0  0  0
    7.2860   -5.7941   26.2957 O   0  0  0  0  0  0  0  0  0  0  0  0
    7.3256   -7.5689   27.9649 N   0  0  0  0  0  0  0  0  0  0  0  0
    5.9904   -7.6195   28.6573 C   0  0  0  0  0  0  0  0  0  0  0  0
    6.0337   -6.6920   29.8676 C   0  0  0  0  0  0  0  0  0  0  0  0
    5.5952   -9.0822   29.0740 C   0  0  0  0  0  0  0  0  0  0  0  0
    4.3786   -9.4197   29.8516 N   0  0  0  0  0  0  0  0  0  0  0  0
    3.0698   -8.8137   29.8742 C   0  0  0  0  0  0  0  0  0  0  0  0
    2.6579   -7.8345   29.3288 O   0  0  0  0  0  0  0  0  0  0  0  0
    2.0685   -9.6150   30.6614 C   0  0  0  0  0  0  0  0  0  0  0  0
    2.1523  -10.3755   31.8234 C   0  0  0  0  0  0  0  0  0  0  0  0
    0.9973  -11.0157   32.2700 N   0  0  0  0  0  0  0  0  0  0  0  0
   -0.0009  -10.6794   31.4878 C   0  0  0  0  0  0  0  0  0  0  0  0
    0.4016   -9.6647   30.1584 S   0  0  0  0  0  0  0  0  0  0  0  0
   10.8851   -6.4204   24.6499 N   0  0  0  0  0  0  0  0  0  0  0  0
   14.1023   -6.9123   24.1417 H   0  0  0  0  0  0  0  0  0  0  0  0
   14.5408   -5.2164   24.4003 H   0  0  0  0  0  0  0  0  0  0  0  0
   14.8327   -5.9756   22.8255 H   0  0  0  0  0  0  0  0  0  0  0  0
   12.4034   -6.2078   22.4352 H   0  0  0  0  0  0  0  0  0  0  0  0
   12.8295   -4.5164   22.7041 H   0  0  0  0  0  0  0  0  0  0  0  0
   11.9882   -3.4517   25.3116 H   0  0  0  0  0  0  0  0  0  0  0  0
    9.8512   -7.1745   27.5509 H   0  0  0  0  0  0  0  0  0  0  0  0
    9.3109   -7.9972   26.0766 H   0  0  0  0  0  0  0  0  0  0  0  0
    8.0917   -8.1250   28.3259 H   0  0  0  0  0  0  0  0  0  0  0  0
    5.2566   -7.2294   27.9454 H   0  0  0  0  0  0  0  0  0  0  0  0
    5.0626   -6.6419   30.3684 H   0  0  0  0  0  0  0  0  0  0  0  0
    6.3081   -5.6748   29.5671 H   0  0  0  0  0  0  0  0  0  0  0  0
    6.7780   -7.0312   30.5964 H   0  0  0  0  0  0  0  0  0  0  0  0
    6.4230   -9.5083   29.6548 H   0  0  0  0  0  0  0  0  0  0  0  0
    5.5321   -9.6870   28.1616 H   0  0  0  0  0  0  0  0  0  0  0  0
    4.3470  -10.3018   30.3715 H   0  0  0  0  0  0  0  0  0  0  0  0
    3.0582  -10.5005   32.4049 H   0  0  0  0  0  0  0  0  0  0  0  0
   -1.0141  -11.0220   31.6552 H   0  0  0  0  0  0  0  0  0  0  0  0
   10.8034   -7.3133   24.1860 H   0  0  0  0  0  0  0  0  0  0  0  0
  1  2  1  0
  2  3  1  0
  3  4  2  0
  4  5  1  0
  5  6  2  0
  6  7  1  0
  7  8  1  0
  8  9  2  0
  8 10  1  0
 10 11  1  0
 11 12  1  0
 11 13  1  0
 13 14  1  0
 14 15  1  0
 15 16  2  0
 15 17  1  0
 17 18  2  0
 18 19  1  0
 19 20  2  0
 20 21  1  0
  6 22  1  0
 22  3  1  0
 21 17  1  0
  1 23  1  0
  1 24  1  0
  1 25  1  0
  2 26  1  0
  2 27  1  0
  4 28  1  0
  7 29  1  0
  7 30  1  0
 10 31  1  0
 11 32  1  0
 12 33  1  0
 12 34  1  0
 12 35  1  0
 13 36  1  0
 13 37  1  0
 14 38  1  0
 18 39  1  0
 20 40  1  0
 22 41  1  0
M  END
>  <Energy>  (1375) 
32.89588986179632

>  <compound_id>  (1375) 
7727

>  <target_id>  (1375) 
1

>  <reference_id>  (1375) 
71

>  <inspiration_ids>  (1375) 
[115, 71]

>  <energy_score>  (1375) 
-17.53726735531825

>  <distance_score>  (1375) 
14.895843292965575

>  <path>  (1375) 
/opt/xchem-fragalysis-2/maxwin/BulkDock/SCRATCH/511020/C7727-P71/C7727-P71.minimised.mol

>  <scratch_subdir>  (1375) 
/opt/xchem-fragalysis-2/maxwin/BulkDock/SCRATCH/511020/C7727-P71

>  <fragmenstein_runtime>  (1375) 
19.834644556045532

>  <fragmenstein_outcome>  (1375) 
too moved

>  <fragmenstein_mode>  (1375) 
expansion

>  <fragmenstein_error>  (1375) 


$$$$
C7728-P115
     RDKit          3D

 38 39  0  0  0  0  0  0  0  0999 V2000
    8.9069  -15.7733   18.5179 C   0  0  0  0  0  0  0  0  0  0  0  0
    7.7696  -15.3077   17.6322 C   0  0  0  0  0  0  0  0  0  0  0  0
    6.3688  -15.9594   17.9434 C   0  0  0  0  0  0  0  0  0  0  0  0
    6.1231  -17.2435   18.6416 N   0  0  0  0  0  0  0  0  0  0  0  0
    5.6683  -18.5299   18.1384 C   0  0  0  0  0  0  0  0  0  0  0  0
    5.4567  -18.8971   17.0192 O   0  0  0  0  0  0  0  0  0  0  0  0
    5.3098  -19.5244   19.2182 C   0  0  0  0  0  0  0  0  0  0  0  0
    4.2847  -20.4806   19.1380 C   0  0  0  0  0  0  0  0  0  0  0  0
    3.8856  -21.1033   20.3167 N   0  0  0  0  0  0  0  0  0  0  0  0
    4.6501  -20.6734   21.2923 C   0  0  0  0  0  0  0  0  0  0  0  0
    5.8978  -19.5714   20.8265 S   0  0  0  0  0  0  0  0  0  0  0  0
    7.6821  -13.7981   17.6070 N   0  0  0  0  0  0  0  0  0  0  0  0
    8.7362  -12.7659   17.6908 C   0  0  0  0  0  0  0  0  0  0  0  0
    9.9176  -12.8694   17.8796 O   0  0  0  0  0  0  0  0  0  0  0  0
    8.1164  -11.3556   17.4184 C   0  0  0  0  0  0  0  0  0  0  0  0
    8.8990  -10.1176   17.8834 C   0  0  0  0  0  0  0  0  0  0  0  0
    8.4037   -9.1963   18.7063 N   0  0  0  0  0  0  0  0  0  0  0  0
    9.3282   -8.1814   18.7765 C   0  0  0  0  0  0  0  0  0  0  0  0
   10.3964   -8.4531   17.9676 C   0  0  0  0  0  0  0  0  0  0  0  0
   10.1118   -9.6656   17.3931 N   0  0  0  0  0  0  0  0  0  0  0  0
   10.9439  -10.2766   16.3942 C   0  0  0  0  0  0  0  0  0  0  0  0
    8.8262  -16.8312   18.7807 H   0  0  0  0  0  0  0  0  0  0  0  0
    9.8649  -15.6399   18.0019 H   0  0  0  0  0  0  0  0  0  0  0  0
    8.9624  -15.1632   19.4174 H   0  0  0  0  0  0  0  0  0  0  0  0
    8.0256  -15.5897   16.6030 H   0  0  0  0  0  0  0  0  0  0  0  0
    5.8007  -15.2294   18.5257 H   0  0  0  0  0  0  0  0  0  0  0  0
    5.8341  -16.0363   16.9878 H   0  0  0  0  0  0  0  0  0  0  0  0
    6.1133  -17.2624   19.6541 H   0  0  0  0  0  0  0  0  0  0  0  0
    3.7316  -20.6915   18.2287 H   0  0  0  0  0  0  0  0  0  0  0  0
    4.5270  -20.9896   22.3204 H   0  0  0  0  0  0  0  0  0  0  0  0
    6.7770  -13.3439   17.5194 H   0  0  0  0  0  0  0  0  0  0  0  0
    7.9483  -11.2750   16.3379 H   0  0  0  0  0  0  0  0  0  0  0  0
    7.1360  -11.3129   17.9098 H   0  0  0  0  0  0  0  0  0  0  0  0
    9.1720   -7.3114   19.4008 H   0  0  0  0  0  0  0  0  0  0  0  0
   11.2938   -7.8929   17.7454 H   0  0  0  0  0  0  0  0  0  0  0  0
   10.4170  -11.1096   15.9248 H   0  0  0  0  0  0  0  0  0  0  0  0
   11.8533  -10.6439   16.8739 H   0  0  0  0  0  0  0  0  0  0  0  0
   11.1622   -9.5389   15.6202 H   0  0  0  0  0  0  0  0  0  0  0  0
  1  2  1  0
  2  3  1  0
  3  4  1  0
  4  5  1  0
  5  6  2  0
  5  7  1  0
  7  8  2  0
  8  9  1  0
  9 10  2  0
 10 11  1  0
  2 12  1  0
 12 13  1  0
 13 14  2  0
 13 15  1  0
 15 16  1  0
 16 17  2  0
 17 18  1  0
 18 19  2  0
 19 20  1  0
 20 21  1  0
 11  7  1  0
 20 16  1  0
  1 22  1  0
  1 23  1  0
  1 24  1  0
  2 25  1  0
  3 26  1  0
  3 27  1  0
  4 28  1  0
  8 29  1  0
 10 30  1  0
 12 31  1  0
 15 32  1  0
 15 33  1  0
 18 34  1  0
 19 35  1  0
 21 36  1  0
 21 37  1  0
 21 38  1  0
M  END
>  <Energy>  (1376) 
38.615761956574552

>  <compound_id>  (1376) 
7728

>  <target_id>  (1376) 
1

>  <reference_id>  (1376) 
115

>  <inspiration_ids>  (1376) 
[115, 71]

>  <energy_score>  (1376) 
-47.5357080710545

>  <distance_score>  (1376) 
15.663183409468415

>  <path>  (1376) 
/opt/xchem-fragalysis-2/maxwin/BulkDock/SCRATCH/511020/C7728-P115/C7728-P115.minimised.mol

>  <scratch_subdir>  (1376) 
/opt/xchem-fragalysis-2/maxwin/BulkDock/SCRATCH/511020/C7728-P115

>  <fragmenstein_runtime>  (1376) 
13.146386623382568

>  <fragmenstein_outcome>  (1376) 
too moved

>  <fragmenstein_mode>  (1376) 
expansion

>  <fragmenstein_error>  (1376) 


$$$$
C7728-P71
     RDKit          3D

 38 39  0  0  0  0  0  0  0  0999 V2000
   -0.8144   -6.0428   21.7464 C   0  0  0  0  0  0  0  0  0  0  0  0
   -0.1246   -6.4988   23.0277 C   0  0  0  0  0  0  0  0  0  0  0  0
   -1.1023   -6.3243   24.2634 C   0  0  0  0  0  0  0  0  0  0  0  0
   -2.1144   -7.3845   24.5545 N   0  0  0  0  0  0  0  0  0  0  0  0
   -2.6927   -7.8314   25.8152 C   0  0  0  0  0  0  0  0  0  0  0  0
   -2.5034   -7.4543   26.9343 O   0  0  0  0  0  0  0  0  0  0  0  0
   -3.6053   -9.0300   25.7286 C   0  0  0  0  0  0  0  0  0  0  0  0
   -4.0114   -9.8280   26.8090 C   0  0  0  0  0  0  0  0  0  0  0  0
   -4.7527  -10.9689   26.5315 N   0  0  0  0  0  0  0  0  0  0  0  0
   -4.9902  -11.0026   25.2429 C   0  0  0  0  0  0  0  0  0  0  0  0
   -4.3113   -9.7075   24.3191 S   0  0  0  0  0  0  0  0  0  0  0  0
    1.2268   -5.8720   23.2208 N   0  0  0  0  0  0  0  0  0  0  0  0
    2.0658   -5.0722   22.3005 C   0  0  0  0  0  0  0  0  0  0  0  0
    1.8376   -4.6575   21.1951 O   0  0  0  0  0  0  0  0  0  0  0  0
    3.4596   -4.7283   22.9636 C   0  0  0  0  0  0  0  0  0  0  0  0
    4.6468   -4.5694   21.9862 C   0  0  0  0  0  0  0  0  0  0  0  0
    5.2489   -5.5695   21.3580 N   0  0  0  0  0  0  0  0  0  0  0  0
    6.2512   -5.0390   20.5924 C   0  0  0  0  0  0  0  0  0  0  0  0
    6.3308   -3.6894   20.7953 C   0  0  0  0  0  0  0  0  0  0  0  0
    5.3722   -3.4105   21.7369 N   0  0  0  0  0  0  0  0  0  0  0  0
    5.2262   -2.1188   22.3586 C   0  0  0  0  0  0  0  0  0  0  0  0
   -0.2135   -6.2961   20.8668 H   0  0  0  0  0  0  0  0  0  0  0  0
   -0.9744   -4.9594   21.7466 H   0  0  0  0  0  0  0  0  0  0  0  0
   -1.7874   -6.5318   21.6312 H   0  0  0  0  0  0  0  0  0  0  0  0
    0.0918   -7.5689   22.9334 H   0  0  0  0  0  0  0  0  0  0  0  0
   -0.5156   -6.2271   25.1825 H   0  0  0  0  0  0  0  0  0  0  0  0
   -1.6623   -5.3873   24.1628 H   0  0  0  0  0  0  0  0  0  0  0  0
   -2.5678   -7.8722   23.7911 H   0  0  0  0  0  0  0  0  0  0  0  0
   -3.7400   -9.6246   27.8406 H   0  0  0  0  0  0  0  0  0  0  0  0
   -5.5768  -11.7843   24.7772 H   0  0  0  0  0  0  0  0  0  0  0  0
    1.7753   -6.1170   24.0479 H   0  0  0  0  0  0  0  0  0  0  0  0
    3.7317   -5.5293   23.6606 H   0  0  0  0  0  0  0  0  0  0  0  0
    3.3221   -3.8099   23.5436 H   0  0  0  0  0  0  0  0  0  0  0  0
    6.8503   -5.6637   19.9431 H   0  0  0  0  0  0  0  0  0  0  0  0
    6.9695   -2.9308   20.3784 H   0  0  0  0  0  0  0  0  0  0  0  0
    5.5123   -2.2096   23.4093 H   0  0  0  0  0  0  0  0  0  0  0  0
    5.8646   -1.3875   21.8565 H   0  0  0  0  0  0  0  0  0  0  0  0
    4.1816   -1.8094   22.2715 H   0  0  0  0  0  0  0  0  0  0  0  0
  1  2  1  0
  2  3  1  0
  3  4  1  0
  4  5  1  0
  5  6  2  0
  5  7  1  0
  7  8  2  0
  8  9  1  0
  9 10  2  0
 10 11  1  0
  2 12  1  0
 12 13  1  0
 13 14  2  0
 13 15  1  0
 15 16  1  0
 16 17  2  0
 17 18  1  0
 18 19  2  0
 19 20  1  0
 20 21  1  0
 11  7  1  0
 20 16  1  0
  1 22  1  0
  1 23  1  0
  1 24  1  0
  2 25  1  0
  3 26  1  0
  3 27  1  0
  4 28  1  0
  8 29  1  0
 10 30  1  0
 12 31  1  0
 15 32  1  0
 15 33  1  0
 18 34  1  0
 19 35  1  0
 21 36  1  0
 21 37  1  0
 21 38  1  0
M  END
>  <Energy>  (1377) 
35.630730324226867

>  <compound_id>  (1377) 
7728

>  <target_id>  (1377) 
1

>  <reference_id>  (1377) 
71

>  <inspiration_ids>  (1377) 
[115, 71]

>  <energy_score>  (1377) 
-50.52073970340075

>  <distance_score>  (1377) 
15.008703559557722

>  <path>  (1377) 
/opt/xchem-fragalysis-2/maxwin/BulkDock/SCRATCH/511020/C7728-P71/C7728-P71.minimised.mol

>  <scratch_subdir>  (1377) 
/opt/xchem-fragalysis-2/maxwin/BulkDock/SCRATCH/511020/C7728-P71

>  <fragmenstein_runtime>  (1377) 
13.135853290557861

>  <fragmenstein_outcome>  (1377) 
too moved

>  <fragmenstein_mode>  (1377) 
expansion

>  <fragmenstein_error>  (1377) 


$$$$
C47251-P106
     RDKit          3D

 34 36  0  0  0  0  0  0  0  0999 V2000
    5.9665  -10.6244   27.3379 O   0  0  0  0  0  0  0  0  0  0  0  0
    6.4438  -11.3986   26.4926 C   0  0  0  0  0  0  0  0  0  0  0  0
    5.8177  -12.9252   26.4574 C   0  0  0  0  0  0  0  0  0  0  0  0
    4.3587  -14.0529   25.9224 C   0  0  0  0  0  0  0  0  0  0  0  0
    2.8056  -14.0364   26.9796 N   0  0  0  0  0  0  0  0  0  0  0  0
    1.1145  -13.2567   25.8783 S   0  0  0  0  0  0  0  0  0  0  0  0
    1.8481  -13.1029   24.5425 O   0  0  0  0  0  0  0  0  0  0  0  0
    1.1405  -11.9265   26.5007 O   0  0  0  0  0  0  0  0  0  0  0  0
   -1.1822  -13.6086   25.4128 C   0  0  0  0  0  0  0  0  0  0  0  0
   -2.5283  -12.7633   25.6014 C   0  0  0  0  0  0  0  0  0  0  0  0
   -3.6003  -13.6430   25.7935 N   0  0  0  0  0  0  0  0  0  0  0  0
   -3.1836  -14.9001   25.5162 C   0  0  0  0  0  0  0  0  0  0  0  0
   -1.9120  -14.9076   25.1535 N   0  0  0  0  0  0  0  0  0  0  0  0
    7.6290  -10.9447   25.6881 C   0  0  0  0  0  0  0  0  0  0  0  0
    8.6388  -11.6797   25.0864 C   0  0  0  0  0  0  0  0  0  0  0  0
    9.6948  -10.8983   24.6678 N   0  0  0  0  0  0  0  0  0  0  0  0
    9.3653   -9.6527   24.9271 C   0  0  0  0  0  0  0  0  0  0  0  0
   10.1043   -8.5197   24.6869 N   0  0  0  0  0  0  0  0  0  0  0  0
    9.5155   -7.3936   24.9529 C   0  0  0  0  0  0  0  0  0  0  0  0
    8.1368   -7.2313   25.4812 C   0  0  0  0  0  0  0  0  0  0  0  0
    7.4794   -8.3730   25.7447 C   0  0  0  0  0  0  0  0  0  0  0  0
    8.0750   -9.6091   25.4829 N   0  0  0  0  0  0  0  0  0  0  0  0
    6.7624  -13.4272   26.2395 H   0  0  0  0  0  0  0  0  0  0  0  0
    5.6144  -12.9599   27.5391 H   0  0  0  0  0  0  0  0  0  0  0  0
    4.5513  -15.0943   25.9606 H   0  0  0  0  0  0  0  0  0  0  0  0
    4.0005  -13.9327   24.9052 H   0  0  0  0  0  0  0  0  0  0  0  0
    3.0423  -13.1690   27.4437 H   0  0  0  0  0  0  0  0  0  0  0  0
   -2.7172  -11.7090   25.7552 H   0  0  0  0  0  0  0  0  0  0  0  0
   -4.5460  -13.3636   26.0191 H   0  0  0  0  0  0  0  0  0  0  0  0
   -3.8412  -15.7589   25.5324 H   0  0  0  0  0  0  0  0  0  0  0  0
    8.7134  -12.7569   24.9961 H   0  0  0  0  0  0  0  0  0  0  0  0
   10.0634   -6.4528   24.7793 H   0  0  0  0  0  0  0  0  0  0  0  0
    7.7249   -6.2437   25.6234 H   0  0  0  0  0  0  0  0  0  0  0  0
    6.4688   -8.3824   26.1297 H   0  0  0  0  0  0  0  0  0  0  0  0
  1  2  2  0
  2  3  1  0
  3  4  1  0
  4  5  1  0
  5  6  1  0
  6  7  2  0
  6  8  2  0
  6  9  1  0
  9 10  2  0
 10 11  1  0
 11 12  1  0
 12 13  2  0
  2 14  1  0
 14 15  2  0
 15 16  1  0
 16 17  2  0
 17 18  1  0
 18 19  2  0
 19 20  1  0
 20 21  2  0
 21 22  1  0
 13  9  1  0
 22 14  1  0
 22 17  1  0
  3 23  1  0
  3 24  1  0
  4 25  1  0
  4 26  1  0
  5 27  1  0
 10 28  1  0
 11 29  1  0
 12 30  1  0
 15 31  1  0
 19 32  1  0
 20 33  1  0
 21 34  1  0
M  END
>  <Energy>  (1378) 
374.12962527771919

>  <compound_id>  (1378) 
47251

>  <target_id>  (1378) 
1

>  <reference_id>  (1378) 
106

>  <inspiration_ids>  (1378) 
[106, 115]

>  <energy_score>  (1378) 
275.9476884696679

>  <distance_score>  (1378) 
13.9507127094811

>  <path>  (1378) 
/opt/xchem-fragalysis-2/maxwin/BulkDock/SCRATCH/511020/C47251-P106/C47251-P106.minimised.mol

>  <scratch_subdir>  (1378) 
/opt/xchem-fragalysis-2/maxwin/BulkDock/SCRATCH/511020/C47251-P106

>  <fragmenstein_runtime>  (1378) 
14.794941663742065

>  <fragmenstein_outcome>  (1378) 
too moved

>  <fragmenstein_mode>  (1378) 
expansion

>  <fragmenstein_error>  (1378) 


$$$$
C47251-P115
     RDKit          3D

 34 36  0  0  0  0  0  0  0  0999 V2000
    7.0306  -10.3408   19.9035 O   0  0  0  0  0  0  0  0  0  0  0  0
    6.9057  -11.0444   18.9813 C   0  0  0  0  0  0  0  0  0  0  0  0
    5.5485  -12.4860   19.3799 C   0  0  0  0  0  0  0  0  0  0  0  0
    4.1021  -13.5529   18.5855 C   0  0  0  0  0  0  0  0  0  0  0  0
    2.6785  -14.6832   18.6024 N   0  0  0  0  0  0  0  0  0  0  0  0
    1.4397  -15.5050   17.3293 S   0  0  0  0  0  0  0  0  0  0  0  0
    2.1106  -16.2087   16.2580 O   0  0  0  0  0  0  0  0  0  0  0  0
    0.5253  -14.4275   17.0008 O   0  0  0  0  0  0  0  0  0  0  0  0
    0.2926  -16.7647   18.1025 C   0  0  0  0  0  0  0  0  0  0  0  0
    0.3032  -18.1398   17.9137 C   0  0  0  0  0  0  0  0  0  0  0  0
   -0.6576  -18.6539   18.7563 N   0  0  0  0  0  0  0  0  0  0  0  0
   -1.2795  -17.6024   19.3597 C   0  0  0  0  0  0  0  0  0  0  0  0
   -0.7479  -16.4577   18.9852 N   0  0  0  0  0  0  0  0  0  0  0  0
    8.4876  -10.7285   17.8580 C   0  0  0  0  0  0  0  0  0  0  0  0
    8.7578  -10.4295   16.4187 C   0  0  0  0  0  0  0  0  0  0  0  0
    9.1611  -11.4490   15.6044 N   0  0  0  0  0  0  0  0  0  0  0  0
   10.0587  -11.9769   16.3672 C   0  0  0  0  0  0  0  0  0  0  0  0
   11.1395  -12.6663   15.9150 N   0  0  0  0  0  0  0  0  0  0  0  0
   12.2651  -12.3417   16.4571 C   0  0  0  0  0  0  0  0  0  0  0  0
   12.4162  -11.4242   17.5882 C   0  0  0  0  0  0  0  0  0  0  0  0
   11.2643  -11.0187   18.1482 C   0  0  0  0  0  0  0  0  0  0  0  0
    9.9766  -11.3618   17.6547 N   0  0  0  0  0  0  0  0  0  0  0  0
    5.0726  -12.0870   20.2765 H   0  0  0  0  0  0  0  0  0  0  0  0
    6.0582  -13.2574   19.9280 H   0  0  0  0  0  0  0  0  0  0  0  0
    4.6907  -14.4233   18.2267 H   0  0  0  0  0  0  0  0  0  0  0  0
    3.6639  -12.7426   18.0058 H   0  0  0  0  0  0  0  0  0  0  0  0
    2.0463  -13.9196   18.3703 H   0  0  0  0  0  0  0  0  0  0  0  0
    0.9364  -18.7764   17.3115 H   0  0  0  0  0  0  0  0  0  0  0  0
   -0.8701  -19.6326   18.8947 H   0  0  0  0  0  0  0  0  0  0  0  0
   -2.1043  -17.7249   20.0471 H   0  0  0  0  0  0  0  0  0  0  0  0
    9.3114   -9.5731   16.0626 H   0  0  0  0  0  0  0  0  0  0  0  0
   13.1941  -12.8141   16.0975 H   0  0  0  0  0  0  0  0  0  0  0  0
   13.4034  -11.1834   17.9561 H   0  0  0  0  0  0  0  0  0  0  0  0
   11.3190  -10.4054   19.0271 H   0  0  0  0  0  0  0  0  0  0  0  0
  1  2  2  0
  2  3  1  0
  3  4  1  0
  4  5  1  0
  5  6  1  0
  6  7  2  0
  6  8  2  0
  6  9  1  0
  9 10  2  0
 10 11  1  0
 11 12  1  0
 12 13  2  0
  2 14  1  0
 14 15  2  0
 15 16  1  0
 16 17  2  0
 17 18  1  0
 18 19  2  0
 19 20  1  0
 20 21  2  0
 21 22  1  0
 13  9  1  0
 22 14  1  0
 22 17  1  0
  3 23  1  0
  3 24  1  0
  4 25  1  0
  4 26  1  0
  5 27  1  0
 10 28  1  0
 11 29  1  0
 12 30  1  0
 15 31  1  0
 19 32  1  0
 20 33  1  0
 21 34  1  0
M  END
>  <Energy>  (1379) 
541.03649177480577

>  <compound_id>  (1379) 
47251

>  <target_id>  (1379) 
1

>  <reference_id>  (1379) 
115

>  <inspiration_ids>  (1379) 
[106, 115]

>  <energy_score>  (1379) 
442.8545549667499

>  <distance_score>  (1379) 
14.178373013102476

>  <path>  (1379) 
/opt/xchem-fragalysis-2/maxwin/BulkDock/SCRATCH/511020/C47251-P115/C47251-P115.minimised.mol

>  <scratch_subdir>  (1379) 
/opt/xchem-fragalysis-2/maxwin/BulkDock/SCRATCH/511020/C47251-P115

>  <fragmenstein_runtime>  (1379) 
14.775853395462036

>  <fragmenstein_outcome>  (1379) 
too moved

>  <fragmenstein_mode>  (1379) 
expansion

>  <fragmenstein_error>  (1379) 


$$$$
C47252-P106
     RDKit          3D

 35 38  0  0  0  0  0  0  0  0999 V2000
   -1.2390  -18.0005   25.9256 O   0  0  0  0  0  0  0  0  0  0  0  0
   -0.7606  -18.4725   26.9164 C   0  0  0  0  0  0  0  0  0  0  0  0
    0.6711  -17.8446   27.8388 N   0  0  0  0  0  0  0  0  0  0  0  0
    1.6735  -16.6661   27.5284 C   0  0  0  0  0  0  0  0  0  0  0  0
    2.7949  -17.2824   26.7407 C   0  0  0  0  0  0  0  0  0  0  0  0
    3.7313  -16.6312   26.1456 N   0  0  0  0  0  0  0  0  0  0  0  0
    4.1620  -15.1902   26.0689 C   0  0  0  0  0  0  0  0  0  0  0  0
    4.9312  -14.4529   25.3054 N   0  0  0  0  0  0  0  0  0  0  0  0
    5.3785  -13.3588   26.0711 C   0  0  0  0  0  0  0  0  0  0  0  0
    4.7539  -13.5158   27.3462 C   0  0  0  0  0  0  0  0  0  0  0  0
    3.7245  -14.6190   27.1710 N   0  0  0  0  0  0  0  0  0  0  0  0
    2.7010  -15.7427   27.9387 C   0  0  0  0  0  0  0  0  0  0  0  0
   -1.6288  -20.1447   27.3174 C   0  0  0  0  0  0  0  0  0  0  0  0
   -1.1650  -21.0505   28.3690 C   0  0  0  0  0  0  0  0  0  0  0  0
   -1.6395  -22.3469   28.6162 C   0  0  0  0  0  0  0  0  0  0  0  0
   -2.6841  -22.8245   27.8676 C   0  0  0  0  0  0  0  0  0  0  0  0
   -3.3310  -21.9418   27.0117 C   0  0  0  0  0  0  0  0  0  0  0  0
   -2.9039  -20.5831   26.7939 C   0  0  0  0  0  0  0  0  0  0  0  0
   -4.0198  -19.7672   26.3015 C   0  0  0  0  0  0  0  0  0  0  0  0
   -5.2931  -20.1465   26.3918 N   0  0  0  0  0  0  0  0  0  0  0  0
   -6.0506  -19.0817   26.0062 C   0  0  0  0  0  0  0  0  0  0  0  0
   -5.2379  -18.0305   25.6685 C   0  0  0  0  0  0  0  0  0  0  0  0
   -3.9556  -18.4863   25.8374 N   0  0  0  0  0  0  0  0  0  0  0  0
    0.8034  -18.3905   28.6855 H   0  0  0  0  0  0  0  0  0  0  0  0
    2.8735  -18.3236   26.5779 H   0  0  0  0  0  0  0  0  0  0  0  0
    6.1398  -12.6417   25.7757 H   0  0  0  0  0  0  0  0  0  0  0  0
    4.9619  -12.9482   28.2490 H   0  0  0  0  0  0  0  0  0  0  0  0
    3.6155  -16.3672   28.2141 H   0  0  0  0  0  0  0  0  0  0  0  0
   -0.4805  -20.6953   29.1364 H   0  0  0  0  0  0  0  0  0  0  0  0
   -1.2080  -22.9508   29.4103 H   0  0  0  0  0  0  0  0  0  0  0  0
   -3.0741  -23.8242   28.0241 H   0  0  0  0  0  0  0  0  0  0  0  0
   -4.2601  -22.2871   26.5486 H   0  0  0  0  0  0  0  0  0  0  0  0
   -7.1319  -19.1270   25.9938 H   0  0  0  0  0  0  0  0  0  0  0  0
   -5.4430  -17.0304   25.3168 H   0  0  0  0  0  0  0  0  0  0  0  0
   -3.0908  -17.9836   25.6641 H   0  0  0  0  0  0  0  0  0  0  0  0
  1  2  2  0
  2  3  1  0
  3  4  1  0
  4  5  1  0
  5  6  2  0
  6  7  1  0
  7  8  2  0
  8  9  1  0
  9 10  2  0
 10 11  1  0
 11 12  1  0
  2 13  1  0
 13 14  2  0
 14 15  1  0
 15 16  2  0
 16 17  1  0
 17 18  2  0
 18 19  1  0
 19 20  2  0
 20 21  1  0
 21 22  2  0
 22 23  1  0
 12  4  2  0
 18 13  1  0
 23 19  1  0
 11  7  1  0
  3 24  1  0
  5 25  1  0
  9 26  1  0
 10 27  1  0
 12 28  1  0
 14 29  1  0
 15 30  1  0
 16 31  1  0
 17 32  1  0
 21 33  1  0
 22 34  1  0
 23 35  1  0
M  END
>  <Energy>  (1380) 
429.03270851528896

>  <compound_id>  (1380) 
47252

>  <target_id>  (1380) 
1

>  <reference_id>  (1380) 
106

>  <inspiration_ids>  (1380) 
[106, 115]

>  <energy_score>  (1380) 
321.24115949427824

>  <distance_score>  (1380) 
17.640119589485707

>  <path>  (1380) 
/opt/xchem-fragalysis-2/maxwin/BulkDock/SCRATCH/511020/C47252-P106/C47252-P106.minimised.mol

>  <scratch_subdir>  (1380) 
/opt/xchem-fragalysis-2/maxwin/BulkDock/SCRATCH/511020/C47252-P106

>  <fragmenstein_runtime>  (1380) 
20.624521732330322

>  <fragmenstein_outcome>  (1380) 
too moved

>  <fragmenstein_mode>  (1380) 
expansion

>  <fragmenstein_error>  (1380) 


$$$$
C47252-P115
     RDKit          3D

 35 38  0  0  0  0  0  0  0  0999 V2000
   -1.5395  -15.0853   24.3917 O   0  0  0  0  0  0  0  0  0  0  0  0
   -1.2418  -14.8814   23.2281 C   0  0  0  0  0  0  0  0  0  0  0  0
    0.3002  -14.4839   22.5467 N   0  0  0  0  0  0  0  0  0  0  0  0
    2.0082  -14.3736   23.3414 C   0  0  0  0  0  0  0  0  0  0  0  0
    2.8177  -12.7156   23.3502 C   0  0  0  0  0  0  0  0  0  0  0  0
    3.6819  -12.0134   22.5610 N   0  0  0  0  0  0  0  0  0  0  0  0
    4.3773  -12.4797   21.3862 C   0  0  0  0  0  0  0  0  0  0  0  0
    5.5968  -12.2723   20.7744 N   0  0  0  0  0  0  0  0  0  0  0  0
    5.5871  -12.8634   19.5742 C   0  0  0  0  0  0  0  0  0  0  0  0
    4.3227  -13.3295   19.4374 C   0  0  0  0  0  0  0  0  0  0  0  0
    3.6068  -13.4641   21.0068 N   0  0  0  0  0  0  0  0  0  0  0  0
    3.1239  -14.4765   22.4311 C   0  0  0  0  0  0  0  0  0  0  0  0
   -2.6884  -14.9968   21.9500 C   0  0  0  0  0  0  0  0  0  0  0  0
   -2.3418  -14.8681   20.5771 C   0  0  0  0  0  0  0  0  0  0  0  0
   -3.3113  -14.8992   19.5749 C   0  0  0  0  0  0  0  0  0  0  0  0
   -4.6473  -15.0887   19.9016 C   0  0  0  0  0  0  0  0  0  0  0  0
   -5.0235  -15.3073   21.2284 C   0  0  0  0  0  0  0  0  0  0  0  0
   -4.0849  -15.3151   22.2860 C   0  0  0  0  0  0  0  0  0  0  0  0
   -4.6611  -15.7691   23.6006 C   0  0  0  0  0  0  0  0  0  0  0  0
   -4.6642  -15.1581   24.7688 N   0  0  0  0  0  0  0  0  0  0  0  0
   -5.2968  -15.9996   25.6630 C   0  0  0  0  0  0  0  0  0  0  0  0
   -5.7324  -17.1394   25.0381 C   0  0  0  0  0  0  0  0  0  0  0  0
   -5.3367  -16.9837   23.7376 N   0  0  0  0  0  0  0  0  0  0  0  0
    0.2359  -14.4656   21.5785 H   0  0  0  0  0  0  0  0  0  0  0  0
    2.2465  -12.1584   24.0898 H   0  0  0  0  0  0  0  0  0  0  0  0
    6.4104  -12.8485   18.8774 H   0  0  0  0  0  0  0  0  0  0  0  0
    3.7959  -13.9027   18.6765 H   0  0  0  0  0  0  0  0  0  0  0  0
    3.7848  -15.1978   22.9610 H   0  0  0  0  0  0  0  0  0  0  0  0
   -1.3141  -14.7697   20.2696 H   0  0  0  0  0  0  0  0  0  0  0  0
   -3.0210  -14.7809   18.5329 H   0  0  0  0  0  0  0  0  0  0  0  0
   -5.4016  -15.1006   19.1174 H   0  0  0  0  0  0  0  0  0  0  0  0
   -6.0790  -15.4868   21.4355 H   0  0  0  0  0  0  0  0  0  0  0  0
   -5.3959  -15.7253   26.7054 H   0  0  0  0  0  0  0  0  0  0  0  0
   -6.2516  -18.0194   25.3887 H   0  0  0  0  0  0  0  0  0  0  0  0
   -5.4532  -17.6586   22.9958 H   0  0  0  0  0  0  0  0  0  0  0  0
  1  2  2  0
  2  3  1  0
  3  4  1  0
  4  5  1  0
  5  6  2  0
  6  7  1  0
  7  8  2  0
  8  9  1  0
  9 10  2  0
 10 11  1  0
 11 12  1  0
  2 13  1  0
 13 14  2  0
 14 15  1  0
 15 16  2  0
 16 17  1  0
 17 18  2  0
 18 19  1  0
 19 20  2  0
 20 21  1  0
 21 22  2  0
 22 23  1  0
 12  4  2  0
 18 13  1  0
 23 19  1  0
 11  7  1  0
  3 24  1  0
  5 25  1  0
  9 26  1  0
 10 27  1  0
 12 28  1  0
 14 29  1  0
 15 30  1  0
 16 31  1  0
 17 32  1  0
 21 33  1  0
 22 34  1  0
 23 35  1  0
M  END
>  <Energy>  (1381) 
526.57329429201445

>  <compound_id>  (1381) 
47252

>  <target_id>  (1381) 
1

>  <reference_id>  (1381) 
115

>  <inspiration_ids>  (1381) 
[106, 115]

>  <energy_score>  (1381) 
418.78174527099645

>  <distance_score>  (1381) 
15.400456160868726

>  <path>  (1381) 
/opt/xchem-fragalysis-2/maxwin/BulkDock/SCRATCH/511020/C47252-P115/C47252-P115.minimised.mol

>  <scratch_subdir>  (1381) 
/opt/xchem-fragalysis-2/maxwin/BulkDock/SCRATCH/511020/C47252-P115

>  <fragmenstein_runtime>  (1381) 
19.157131910324097

>  <fragmenstein_outcome>  (1381) 
too moved

>  <fragmenstein_mode>  (1381) 
expansion

>  <fragmenstein_error>  (1381) 


$$$$
C47253-P106
     RDKit          3D

 40 43  0  0  0  0  0  0  0  0999 V2000
    0.7137  -12.3521   15.4005 O   0  0  0  0  0  0  0  0  0  0  0  0
   -0.1684  -11.5664   15.4133 C   0  0  0  0  0  0  0  0  0  0  0  0
   -0.1584  -10.0925   15.7601 N   0  0  0  0  0  0  0  0  0  0  0  0
    0.9054   -9.2317   16.0693 C   0  0  0  0  0  0  0  0  0  0  0  0
    0.6234   -7.7512   16.2886 C   0  0  0  0  0  0  0  0  0  0  0  0
    1.4625   -6.7852   16.5271 N   0  0  0  0  0  0  0  0  0  0  0  0
    2.7682   -7.1464   16.6408 C   0  0  0  0  0  0  0  0  0  0  0  0
    3.8029   -6.3987   16.9664 N   0  0  0  0  0  0  0  0  0  0  0  0
    4.8764   -7.2396   16.9805 C   0  0  0  0  0  0  0  0  0  0  0  0
    4.5148   -8.5156   16.6194 C   0  0  0  0  0  0  0  0  0  0  0  0
    3.1498   -8.4727   16.4416 N   0  0  0  0  0  0  0  0  0  0  0  0
    2.2290   -9.4944   16.1441 C   0  0  0  0  0  0  0  0  0  0  0  0
   -1.6303  -11.7197   14.9843 N   0  0  0  0  0  0  0  0  0  0  0  0
   -1.7831  -11.3402   13.5200 C   0  0  0  0  0  0  0  0  0  0  0  0
   -0.8662  -12.0357   12.5000 C   0  0  0  0  0  0  0  0  0  0  0  0
   -1.2021  -13.5031   12.3763 C   0  0  0  0  0  0  0  0  0  0  0  0
   -1.5422  -14.0546   13.7457 C   0  0  0  0  0  0  0  0  0  0  0  0
   -2.4603  -13.0513   14.4884 C   0  0  0  0  0  0  0  0  0  0  0  0
   -3.3309  -13.8662   15.5478 C   0  0  0  0  0  0  0  0  0  0  0  0
   -3.1905  -15.1525   15.8598 N   0  0  0  0  0  0  0  0  0  0  0  0
   -4.4394  -15.6625   16.1531 C   0  0  0  0  0  0  0  0  0  0  0  0
   -5.3681  -14.6561   16.1216 C   0  0  0  0  0  0  0  0  0  0  0  0
   -4.6507  -13.5169   15.8201 N   0  0  0  0  0  0  0  0  0  0  0  0
   -1.1070   -9.7398   15.7466 H   0  0  0  0  0  0  0  0  0  0  0  0
   -0.4440   -7.4810   16.2138 H   0  0  0  0  0  0  0  0  0  0  0  0
    5.8449   -6.8592   17.2616 H   0  0  0  0  0  0  0  0  0  0  0  0
    5.0656   -9.4400   16.5228 H   0  0  0  0  0  0  0  0  0  0  0  0
    2.6407  -10.4861   16.0018 H   0  0  0  0  0  0  0  0  0  0  0  0
   -1.4205  -10.3000   13.5051 H   0  0  0  0  0  0  0  0  0  0  0  0
   -2.8188  -11.1753   13.1836 H   0  0  0  0  0  0  0  0  0  0  0  0
   -0.9651  -11.5504   11.5220 H   0  0  0  0  0  0  0  0  0  0  0  0
    0.1838  -11.9232   12.7928 H   0  0  0  0  0  0  0  0  0  0  0  0
   -0.3794  -14.0614   11.9175 H   0  0  0  0  0  0  0  0  0  0  0  0
   -2.0723  -13.6175   11.7177 H   0  0  0  0  0  0  0  0  0  0  0  0
   -2.0320  -15.0249   13.6017 H   0  0  0  0  0  0  0  0  0  0  0  0
   -0.6328  -14.2445   14.3252 H   0  0  0  0  0  0  0  0  0  0  0  0
   -3.3042  -12.7822   13.8284 H   0  0  0  0  0  0  0  0  0  0  0  0
   -4.5797  -16.7108   16.3836 H   0  0  0  0  0  0  0  0  0  0  0  0
   -6.4342  -14.6338   16.2942 H   0  0  0  0  0  0  0  0  0  0  0  0
   -5.0495  -12.6055   15.6470 H   0  0  0  0  0  0  0  0  0  0  0  0
  1  2  2  0
  2  3  1  0
  3  4  1  0
  4  5  1  0
  5  6  2  0
  6  7  1  0
  7  8  2  0
  8  9  1  0
  9 10  2  0
 10 11  1  0
 11 12  1  0
  2 13  1  0
 13 14  1  0
 14 15  1  0
 15 16  1  0
 16 17  1  0
 17 18  1  0
 18 19  1  0
 19 20  2  0
 20 21  1  0
 21 22  2  0
 22 23  1  0
 12  4  2  0
 18 13  1  0
 23 19  1  0
 11  7  1  0
  3 24  1  0
  5 25  1  0
  9 26  1  0
 10 27  1  0
 12 28  1  0
 14 29  1  0
 14 30  1  0
 15 31  1  0
 15 32  1  0
 16 33  1  0
 16 34  1  0
 17 35  1  0
 17 36  1  0
 18 37  1  0
 21 38  1  0
 22 39  1  0
 23 40  1  0
M  END
>  <Energy>  (1382) 
83.463474798838888

>  <compound_id>  (1382) 
47253

>  <target_id>  (1382) 
1

>  <reference_id>  (1382) 
106

>  <inspiration_ids>  (1382) 
[106, 115]

>  <energy_score>  (1382) 
39.298501099434134

>  <distance_score>  (1382) 
15.759245773723748

>  <path>  (1382) 
/opt/xchem-fragalysis-2/maxwin/BulkDock/SCRATCH/511020/C47253-P106/C47253-P106.minimised.mol

>  <scratch_subdir>  (1382) 
/opt/xchem-fragalysis-2/maxwin/BulkDock/SCRATCH/511020/C47253-P106

>  <fragmenstein_runtime>  (1382) 
47.84387183189392

>  <fragmenstein_outcome>  (1382) 
too moved

>  <fragmenstein_mode>  (1382) 
expansion

>  <fragmenstein_error>  (1382) 


$$$$
C47253-P115
     RDKit          3D

 40 43  0  0  0  0  0  0  0  0999 V2000
    4.9530   -6.4536   28.0440 O   0  0  0  0  0  0  0  0  0  0  0  0
    5.5788   -7.4070   27.7398 C   0  0  0  0  0  0  0  0  0  0  0  0
    6.5257   -7.6253   26.5823 N   0  0  0  0  0  0  0  0  0  0  0  0
    6.9941   -6.7418   25.6102 C   0  0  0  0  0  0  0  0  0  0  0  0
    6.4282   -5.3643   25.3259 C   0  0  0  0  0  0  0  0  0  0  0  0
    6.8502   -4.4932   24.4449 N   0  0  0  0  0  0  0  0  0  0  0  0
    7.9291   -4.8543   23.6910 C   0  0  0  0  0  0  0  0  0  0  0  0
    8.5588   -4.1840   22.7419 N   0  0  0  0  0  0  0  0  0  0  0  0
    9.6112   -4.9771   22.3544 C   0  0  0  0  0  0  0  0  0  0  0  0
    9.6190   -6.1561   23.0571 C   0  0  0  0  0  0  0  0  0  0  0  0
    8.5334   -6.0893   23.8959 N   0  0  0  0  0  0  0  0  0  0  0  0
    8.0625   -7.0159   24.8299 C   0  0  0  0  0  0  0  0  0  0  0  0
    5.7442   -8.7273   28.4487 N   0  0  0  0  0  0  0  0  0  0  0  0
    6.9394   -8.6689   29.3728 C   0  0  0  0  0  0  0  0  0  0  0  0
    7.7495   -9.9591   29.3683 C   0  0  0  0  0  0  0  0  0  0  0  0
    6.8261  -11.1081   29.6670 C   0  0  0  0  0  0  0  0  0  0  0  0
    5.6816  -10.5660   30.4875 C   0  0  0  0  0  0  0  0  0  0  0  0
    5.0142   -9.3103   29.8048 C   0  0  0  0  0  0  0  0  0  0  0  0
    3.5033   -9.7494   29.6413 C   0  0  0  0  0  0  0  0  0  0  0  0
    2.7960  -10.0416   28.5668 N   0  0  0  0  0  0  0  0  0  0  0  0
    1.5118  -10.2972   29.0060 C   0  0  0  0  0  0  0  0  0  0  0  0
    1.4481  -10.3080   30.3718 C   0  0  0  0  0  0  0  0  0  0  0  0
    2.7093   -9.9720   30.7696 N   0  0  0  0  0  0  0  0  0  0  0  0
    6.9543   -8.5365   26.6690 H   0  0  0  0  0  0  0  0  0  0  0  0
    5.5538   -5.0862   25.9370 H   0  0  0  0  0  0  0  0  0  0  0  0
   10.3250   -4.6520   21.6094 H   0  0  0  0  0  0  0  0  0  0  0  0
   10.2897   -7.0016   23.0429 H   0  0  0  0  0  0  0  0  0  0  0  0
    8.6086   -7.9469   24.8933 H   0  0  0  0  0  0  0  0  0  0  0  0
    6.8054   -8.1975   30.3607 H   0  0  0  0  0  0  0  0  0  0  0  0
    7.6215   -7.9329   28.9178 H   0  0  0  0  0  0  0  0  0  0  0  0
    8.5415   -9.8898   30.1229 H   0  0  0  0  0  0  0  0  0  0  0  0
    8.2396  -10.1169   28.4005 H   0  0  0  0  0  0  0  0  0  0  0  0
    6.4370  -11.5256   28.7311 H   0  0  0  0  0  0  0  0  0  0  0  0
    7.3559  -11.9044   30.1984 H   0  0  0  0  0  0  0  0  0  0  0  0
    6.0534  -10.2604   31.4756 H   0  0  0  0  0  0  0  0  0  0  0  0
    4.9745  -11.3805   30.6808 H   0  0  0  0  0  0  0  0  0  0  0  0
    4.9049   -8.4611   30.5027 H   0  0  0  0  0  0  0  0  0  0  0  0
    0.7017  -10.4666   28.3153 H   0  0  0  0  0  0  0  0  0  0  0  0
    0.6405  -10.4880   31.0681 H   0  0  0  0  0  0  0  0  0  0  0  0
    3.0110   -9.8505   31.7269 H   0  0  0  0  0  0  0  0  0  0  0  0
  1  2  2  0
  2  3  1  0
  3  4  1  0
  4  5  1  0
  5  6  2  0
  6  7  1  0
  7  8  2  0
  8  9  1  0
  9 10  2  0
 10 11  1  0
 11 12  1  0
  2 13  1  0
 13 14  1  0
 14 15  1  0
 15 16  1  0
 16 17  1  0
 17 18  1  0
 18 19  1  0
 19 20  2  0
 20 21  1  0
 21 22  2  0
 22 23  1  0
 12  4  2  0
 18 13  1  0
 23 19  1  0
 11  7  1  0
  3 24  1  0
  5 25  1  0
  9 26  1  0
 10 27  1  0
 12 28  1  0
 14 29  1  0
 14 30  1  0
 15 31  1  0
 15 32  1  0
 16 33  1  0
 16 34  1  0
 17 35  1  0
 17 36  1  0
 18 37  1  0
 21 38  1  0
 22 39  1  0
 23 40  1  0
M  END
>  <Energy>  (1383) 
76.94260680497139

>  <compound_id>  (1383) 
47253

>  <target_id>  (1383) 
1

>  <reference_id>  (1383) 
115

>  <inspiration_ids>  (1383) 
[106, 115]

>  <energy_score>  (1383) 
32.777633105573614

>  <distance_score>  (1383) 
14.707590152788962

>  <path>  (1383) 
/opt/xchem-fragalysis-2/maxwin/BulkDock/SCRATCH/511020/C47253-P115/C47253-P115.minimised.mol

>  <scratch_subdir>  (1383) 
/opt/xchem-fragalysis-2/maxwin/BulkDock/SCRATCH/511020/C47253-P115

>  <fragmenstein_runtime>  (1383) 
32.33651304244995

>  <fragmenstein_outcome>  (1383) 
too moved

>  <fragmenstein_mode>  (1383) 
expansion

>  <fragmenstein_error>  (1383) 


$$$$
C47254-P106
     RDKit          3D

 29 31  0  0  0  0  0  0  0  0999 V2000
   -2.2231  -16.7565   27.4117 O   0  0  0  0  0  0  0  0  0  0  0  0
   -2.5034  -17.2885   26.1002 S   0  0  0  0  0  0  0  0  0  0  0  0
   -1.7454  -18.4208   25.6017 O   0  0  0  0  0  0  0  0  0  0  0  0
   -2.0460  -15.4024   24.8778 N   0  0  0  0  0  0  0  0  0  0  0  0
   -0.3749  -14.3044   24.4315 C   0  0  0  0  0  0  0  0  0  0  0  0
    1.4299  -13.4289   24.9809 C   0  0  0  0  0  0  0  0  0  0  0  0
    1.6913  -13.5699   26.3781 C   0  0  0  0  0  0  0  0  0  0  0  0
    2.6954  -14.0140   27.1405 N   0  0  0  0  0  0  0  0  0  0  0  0
    3.9131  -14.4553   26.6679 C   0  0  0  0  0  0  0  0  0  0  0  0
    4.9231  -15.0264   27.2812 N   0  0  0  0  0  0  0  0  0  0  0  0
    5.9749  -14.3117   26.8668 C   0  0  0  0  0  0  0  0  0  0  0  0
    5.5437  -13.4879   25.8642 C   0  0  0  0  0  0  0  0  0  0  0  0
    4.2017  -14.0442   25.3644 N   0  0  0  0  0  0  0  0  0  0  0  0
    2.9047  -13.3835   24.3726 C   0  0  0  0  0  0  0  0  0  0  0  0
   -4.1021  -18.1073   26.6834 C   0  0  0  0  0  0  0  0  0  0  0  0
   -4.7427  -19.0967   26.0731 N   0  0  0  0  0  0  0  0  0  0  0  0
   -5.7793  -19.4554   26.9018 C   0  0  0  0  0  0  0  0  0  0  0  0
   -5.7515  -18.7046   28.0498 C   0  0  0  0  0  0  0  0  0  0  0  0
   -4.6561  -17.8983   27.9272 N   0  0  0  0  0  0  0  0  0  0  0  0
   -2.5472  -15.5352   24.0049 H   0  0  0  0  0  0  0  0  0  0  0  0
   -0.4400  -14.1272   23.3651 H   0  0  0  0  0  0  0  0  0  0  0  0
   -1.0339  -13.6504   25.0849 H   0  0  0  0  0  0  0  0  0  0  0  0
    0.7833  -13.1808   26.7690 H   0  0  0  0  0  0  0  0  0  0  0  0
    6.9325  -14.3453   27.3689 H   0  0  0  0  0  0  0  0  0  0  0  0
    5.9934  -12.5966   25.4351 H   0  0  0  0  0  0  0  0  0  0  0  0
    3.1300  -13.4625   23.3370 H   0  0  0  0  0  0  0  0  0  0  0  0
   -6.4846  -20.2292   26.6236 H   0  0  0  0  0  0  0  0  0  0  0  0
   -6.3778  -18.6792   28.9238 H   0  0  0  0  0  0  0  0  0  0  0  0
   -4.2965  -17.2348   28.6013 H   0  0  0  0  0  0  0  0  0  0  0  0
  1  2  2  0
  2  3  2  0
  2  4  1  0
  4  5  1  0
  5  6  1  0
  6  7  1  0
  7  8  2  0
  8  9  1  0
  9 10  2  0
 10 11  1  0
 11 12  2  0
 12 13  1  0
 13 14  1  0
  2 15  1  0
 15 16  2  0
 16 17  1  0
 17 18  2  0
 18 19  1  0
 14  6  2  0
 19 15  1  0
 13  9  1  0
  4 20  1  0
  5 21  1  0
  5 22  1  0
  7 23  1  0
 11 24  1  0
 12 25  1  0
 14 26  1  0
 17 27  1  0
 18 28  1  0
 19 29  1  0
M  END
>  <Energy>  (1384) 
487.07421467316664

>  <compound_id>  (1384) 
47254

>  <target_id>  (1384) 
1

>  <reference_id>  (1384) 
106

>  <inspiration_ids>  (1384) 
[106, 115]

>  <energy_score>  (1384) 
465.05858724322707

>  <distance_score>  (1384) 
16.37133274262306

>  <path>  (1384) 
/opt/xchem-fragalysis-2/maxwin/BulkDock/SCRATCH/511020/C47254-P106/C47254-P106.minimised.mol

>  <scratch_subdir>  (1384) 
/opt/xchem-fragalysis-2/maxwin/BulkDock/SCRATCH/511020/C47254-P106

>  <fragmenstein_runtime>  (1384) 
13.515854597091675

>  <fragmenstein_outcome>  (1384) 
too moved

>  <fragmenstein_mode>  (1384) 
expansion

>  <fragmenstein_error>  (1384) 


$$$$
C47254-P115
     RDKit          3D

 29 31  0  0  0  0  0  0  0  0999 V2000
   -3.6967  -12.2636   26.7251 O   0  0  0  0  0  0  0  0  0  0  0  0
   -2.9857  -12.4056   25.4750 S   0  0  0  0  0  0  0  0  0  0  0  0
   -1.7782  -11.8579   25.8184 O   0  0  0  0  0  0  0  0  0  0  0  0
   -3.4085  -10.8438   23.8554 N   0  0  0  0  0  0  0  0  0  0  0  0
   -2.6861   -9.3190   22.9326 C   0  0  0  0  0  0  0  0  0  0  0  0
   -1.4626   -8.2161   23.3069 C   0  0  0  0  0  0  0  0  0  0  0  0
   -0.2882   -8.2224   22.3952 C   0  0  0  0  0  0  0  0  0  0  0  0
    0.6666   -7.3609   22.4605 N   0  0  0  0  0  0  0  0  0  0  0  0
    0.6387   -6.3181   23.4253 C   0  0  0  0  0  0  0  0  0  0  0  0
    1.0017   -5.0398   23.3187 N   0  0  0  0  0  0  0  0  0  0  0  0
    0.5907   -4.4287   24.4687 C   0  0  0  0  0  0  0  0  0  0  0  0
   -0.1554   -5.2987   25.2276 C   0  0  0  0  0  0  0  0  0  0  0  0
   -0.2221   -6.4490   24.4723 N   0  0  0  0  0  0  0  0  0  0  0  0
   -1.1429   -7.4746   24.4581 C   0  0  0  0  0  0  0  0  0  0  0  0
   -2.2782  -14.5449   25.8219 C   0  0  0  0  0  0  0  0  0  0  0  0
   -2.0669  -15.0886   27.1820 N   0  0  0  0  0  0  0  0  0  0  0  0
   -2.3147  -16.5930   27.4001 C   0  0  0  0  0  0  0  0  0  0  0  0
   -2.6554  -17.1267   26.1464 C   0  0  0  0  0  0  0  0  0  0  0  0
   -2.6231  -15.8004   25.1002 N   0  0  0  0  0  0  0  0  0  0  0  0
   -4.3678  -10.9850   23.5003 H   0  0  0  0  0  0  0  0  0  0  0  0
   -2.3728   -9.7573   21.9599 H   0  0  0  0  0  0  0  0  0  0  0  0
   -3.5770   -8.7884   22.5664 H   0  0  0  0  0  0  0  0  0  0  0  0
   -0.2606   -9.0125   21.6277 H   0  0  0  0  0  0  0  0  0  0  0  0
    0.8216   -3.3922   24.6710 H   0  0  0  0  0  0  0  0  0  0  0  0
   -0.7030   -5.1855   26.1495 H   0  0  0  0  0  0  0  0  0  0  0  0
   -1.6798   -7.5027   25.3931 H   0  0  0  0  0  0  0  0  0  0  0  0
   -2.1456  -17.0208   28.3787 H   0  0  0  0  0  0  0  0  0  0  0  0
   -2.7541  -18.1148   25.7233 H   0  0  0  0  0  0  0  0  0  0  0  0
   -2.8913  -15.7993   24.1443 H   0  0  0  0  0  0  0  0  0  0  0  0
  1  2  2  0
  2  3  2  0
  2  4  1  0
  4  5  1  0
  5  6  1  0
  6  7  1  0
  7  8  2  0
  8  9  1  0
  9 10  2  0
 10 11  1  0
 11 12  2  0
 12 13  1  0
 13 14  1  0
  2 15  1  0
 15 16  2  0
 16 17  1  0
 17 18  2  0
 18 19  1  0
 14  6  2  0
 19 15  1  0
 13  9  1  0
  4 20  1  0
  5 21  1  0
  5 22  1  0
  7 23  1  0
 11 24  1  0
 12 25  1  0
 14 26  1  0
 17 27  1  0
 18 28  1  0
 19 29  1  0
M  END
>  <Energy>  (1385) 
396.28237253362113

>  <compound_id>  (1385) 
47254

>  <target_id>  (1385) 
1

>  <reference_id>  (1385) 
115

>  <inspiration_ids>  (1385) 
[106, 115]

>  <energy_score>  (1385) 
374.2667451036932

>  <distance_score>  (1385) 
15.62626064599008

>  <path>  (1385) 
/opt/xchem-fragalysis-2/maxwin/BulkDock/SCRATCH/511020/C47254-P115/C47254-P115.minimised.mol

>  <scratch_subdir>  (1385) 
/opt/xchem-fragalysis-2/maxwin/BulkDock/SCRATCH/511020/C47254-P115

>  <fragmenstein_runtime>  (1385) 
9.411746263504028

>  <fragmenstein_outcome>  (1385) 
too moved

>  <fragmenstein_mode>  (1385) 
expansion

>  <fragmenstein_error>  (1385) 


$$$$
C8668-P106
     RDKit          3D

 36 39  0  0  0  0  0  0  0  0999 V2000
   -2.2851  -14.7721   28.6357 C   0  0  0  0  0  0  0  0  0  0  0  0
   -1.7149  -14.9680   27.4376 C   0  0  0  0  0  0  0  0  0  0  0  0
   -0.4238  -14.5104   27.5436 C   0  0  0  0  0  0  0  0  0  0  0  0
    0.8857  -13.4513   26.2478 C   0  0  0  0  0  0  0  0  0  0  0  0
    1.9192  -13.0069   24.5678 N   0  0  0  0  0  0  0  0  0  0  0  0
    1.9928  -11.8370   23.1918 C   0  0  0  0  0  0  0  0  0  0  0  0
    0.7201  -11.4700   22.3896 C   0  0  0  0  0  0  0  0  0  0  0  0
    0.6316  -10.6362   21.1388 C   0  0  0  0  0  0  0  0  0  0  0  0
    1.5878  -10.2949   20.3632 N   0  0  0  0  0  0  0  0  0  0  0  0
    2.8376  -10.6009   20.7675 C   0  0  0  0  0  0  0  0  0  0  0  0
    3.8789  -10.2918   20.0146 N   0  0  0  0  0  0  0  0  0  0  0  0
    4.9279  -10.2892   20.8297 C   0  0  0  0  0  0  0  0  0  0  0  0
    4.5405  -10.6656   22.0899 C   0  0  0  0  0  0  0  0  0  0  0  0
    3.2005  -11.1869   22.0912 N   0  0  0  0  0  0  0  0  0  0  0  0
   -0.0537  -15.3573   29.0661 C   0  0  0  0  0  0  0  0  0  0  0  0
   -0.8540  -15.2383   30.3559 C   0  0  0  0  0  0  0  0  0  0  0  0
   -1.3829  -15.5984   31.8159 C   0  0  0  0  0  0  0  0  0  0  0  0
   -2.3885  -16.5211   31.8931 N   0  0  0  0  0  0  0  0  0  0  0  0
   -3.2368  -16.2539   32.8570 C   0  0  0  0  0  0  0  0  0  0  0  0
   -2.7459  -15.3551   33.7515 C   0  0  0  0  0  0  0  0  0  0  0  0
   -1.6462  -14.8200   33.0544 N   0  0  0  0  0  0  0  0  0  0  0  0
   -2.0778  -15.1022   29.8565 C   0  0  0  0  0  0  0  0  0  0  0  0
   -2.4566  -13.7525   29.1134 H   0  0  0  0  0  0  0  0  0  0  0  0
   -1.9610  -16.0417   27.3100 H   0  0  0  0  0  0  0  0  0  0  0  0
    1.7944  -13.9154   26.6101 H   0  0  0  0  0  0  0  0  0  0  0  0
    1.0335  -12.4529   26.6182 H   0  0  0  0  0  0  0  0  0  0  0  0
    2.8873  -13.0166   24.8937 H   0  0  0  0  0  0  0  0  0  0  0  0
   -0.0881  -12.1679   22.3365 H   0  0  0  0  0  0  0  0  0  0  0  0
   -0.4004  -10.3736   20.8514 H   0  0  0  0  0  0  0  0  0  0  0  0
    5.9080   -9.9665   20.5057 H   0  0  0  0  0  0  0  0  0  0  0  0
    5.2135  -10.6035   22.9261 H   0  0  0  0  0  0  0  0  0  0  0  0
    0.8501  -15.9882   29.0300 H   0  0  0  0  0  0  0  0  0  0  0  0
   -4.2722  -16.5794   32.7297 H   0  0  0  0  0  0  0  0  0  0  0  0
   -3.3144  -14.9105   34.5456 H   0  0  0  0  0  0  0  0  0  0  0  0
   -1.2384  -13.9106   33.2155 H   0  0  0  0  0  0  0  0  0  0  0  0
   -3.0250  -15.4461   30.2370 H   0  0  0  0  0  0  0  0  0  0  0  0
  1  2  2  0
  2  3  1  0
  3  4  1  0
  4  5  1  0
  5  6  1  0
  6  7  2  0
  7  8  1  0
  8  9  2  0
  9 10  1  0
 10 11  2  0
 11 12  1  0
 12 13  2  0
 13 14  1  0
  3 15  2  0
 15 16  1  0
 16 17  1  0
 17 18  2  0
 18 19  1  0
 19 20  2  0
 20 21  1  0
 16 22  2  0
 22  1  1  0
 14  6  1  0
 21 17  1  0
 14 10  1  0
  1 23  1  0
  2 24  1  0
  4 25  1  0
  4 26  1  0
  5 27  1  0
  7 28  1  0
  8 29  1  0
 12 30  1  0
 13 31  1  0
 15 32  1  0
 19 33  1  0
 20 34  1  0
 21 35  1  0
 22 36  1  0
M  END
>  <Energy>  (1386) 
840.05337498103711

>  <compound_id>  (1386) 
8668

>  <target_id>  (1386) 
1

>  <reference_id>  (1386) 
106

>  <inspiration_ids>  (1386) 
[106, 115]

>  <energy_score>  (1386) 
749.061000190442

>  <distance_score>  (1386) 
15.071672299708979

>  <path>  (1386) 
/opt/xchem-fragalysis-2/maxwin/BulkDock/SCRATCH/511020/C8668-P106/C8668-P106.minimised.mol

>  <scratch_subdir>  (1386) 
/opt/xchem-fragalysis-2/maxwin/BulkDock/SCRATCH/511020/C8668-P106

>  <fragmenstein_runtime>  (1386) 
16.844968557357788

>  <fragmenstein_outcome>  (1386) 
too moved

>  <fragmenstein_mode>  (1386) 
expansion

>  <fragmenstein_error>  (1386) 


$$$$
C8668-P115
     RDKit          3D

 36 39  0  0  0  0  0  0  0  0999 V2000
   -1.2037  -13.6356   25.4639 C   0  0  0  0  0  0  0  0  0  0  0  0
    0.5227  -13.2673   25.9974 C   0  0  0  0  0  0  0  0  0  0  0  0
    1.0399  -14.0806   26.7708 C   0  0  0  0  0  0  0  0  0  0  0  0
    3.0544  -14.0861   27.0832 C   0  0  0  0  0  0  0  0  0  0  0  0
    4.6420  -13.0727   27.7265 N   0  0  0  0  0  0  0  0  0  0  0  0
    5.9054  -12.2143   27.1208 C   0  0  0  0  0  0  0  0  0  0  0  0
    6.4750  -12.5846   25.9830 C   0  0  0  0  0  0  0  0  0  0  0  0
    7.4779  -11.7769   25.2462 C   0  0  0  0  0  0  0  0  0  0  0  0
    7.8315  -10.5737   25.5492 N   0  0  0  0  0  0  0  0  0  0  0  0
    7.2508  -10.1002   26.6832 C   0  0  0  0  0  0  0  0  0  0  0  0
    7.3294   -8.8662   27.1362 N   0  0  0  0  0  0  0  0  0  0  0  0
    6.6629   -8.8786   28.3182 C   0  0  0  0  0  0  0  0  0  0  0  0
    6.0902  -10.1064   28.5646 C   0  0  0  0  0  0  0  0  0  0  0  0
    6.3860  -10.9065   27.5042 N   0  0  0  0  0  0  0  0  0  0  0  0
   -0.5740  -14.8233   27.7466 C   0  0  0  0  0  0  0  0  0  0  0  0
   -2.0951  -15.7410   27.3384 C   0  0  0  0  0  0  0  0  0  0  0  0
   -2.9695  -17.5567   27.1879 C   0  0  0  0  0  0  0  0  0  0  0  0
   -2.3830  -18.8742   26.4009 N   0  0  0  0  0  0  0  0  0  0  0  0
   -3.5809  -20.1012   25.6355 C   0  0  0  0  0  0  0  0  0  0  0  0
   -5.0658  -19.8619   26.2824 C   0  0  0  0  0  0  0  0  0  0  0  0
   -4.6827  -18.4479   27.4522 N   0  0  0  0  0  0  0  0  0  0  0  0
   -2.1938  -14.7517   26.0495 C   0  0  0  0  0  0  0  0  0  0  0  0
   -1.8780  -12.7632   25.3532 H   0  0  0  0  0  0  0  0  0  0  0  0
    1.0924  -12.3475   25.8724 H   0  0  0  0  0  0  0  0  0  0  0  0
    3.5252  -14.2835   26.0974 H   0  0  0  0  0  0  0  0  0  0  0  0
    3.2351  -15.0395   27.6184 H   0  0  0  0  0  0  0  0  0  0  0  0
    4.4077  -12.5062   28.5588 H   0  0  0  0  0  0  0  0  0  0  0  0
    5.8764  -13.3658   25.6141 H   0  0  0  0  0  0  0  0  0  0  0  0
    7.9236  -12.2525   24.3614 H   0  0  0  0  0  0  0  0  0  0  0  0
    6.6368   -7.9997   28.9492 H   0  0  0  0  0  0  0  0  0  0  0  0
    5.5197  -10.5001   29.3870 H   0  0  0  0  0  0  0  0  0  0  0  0
   -0.2949  -15.4087   28.7060 H   0  0  0  0  0  0  0  0  0  0  0  0
   -3.2059  -20.7505   24.8573 H   0  0  0  0  0  0  0  0  0  0  0  0
   -6.1052  -20.1503   26.2749 H   0  0  0  0  0  0  0  0  0  0  0  0
   -5.5207  -18.1412   27.9078 H   0  0  0  0  0  0  0  0  0  0  0  0
   -2.9132  -13.9691   26.3038 H   0  0  0  0  0  0  0  0  0  0  0  0
  1  2  2  0
  2  3  1  0
  3  4  1  0
  4  5  1  0
  5  6  1  0
  6  7  2  0
  7  8  1  0
  8  9  2  0
  9 10  1  0
 10 11  2  0
 11 12  1  0
 12 13  2  0
 13 14  1  0
  3 15  2  0
 15 16  1  0
 16 17  1  0
 17 18  2  0
 18 19  1  0
 19 20  2  0
 20 21  1  0
 16 22  2  0
 22  1  1  0
 14  6  1  0
 21 17  1  0
 14 10  1  0
  1 23  1  0
  2 24  1  0
  4 25  1  0
  4 26  1  0
  5 27  1  0
  7 28  1  0
  8 29  1  0
 12 30  1  0
 13 31  1  0
 15 32  1  0
 19 33  1  0
 20 34  1  0
 21 35  1  0
 22 36  1  0
M  END
>  <Energy>  (1387) 
1096.6550130392134

>  <compound_id>  (1387) 
8668

>  <target_id>  (1387) 
1

>  <reference_id>  (1387) 
115

>  <inspiration_ids>  (1387) 
[106, 115]

>  <energy_score>  (1387) 
1005.6626382486265

>  <distance_score>  (1387) 
14.344783385926737

>  <path>  (1387) 
/opt/xchem-fragalysis-2/maxwin/BulkDock/SCRATCH/511020/C8668-P115/C8668-P115.minimised.mol

>  <scratch_subdir>  (1387) 
/opt/xchem-fragalysis-2/maxwin/BulkDock/SCRATCH/511020/C8668-P115

>  <fragmenstein_runtime>  (1387) 
13.32693099975586

>  <fragmenstein_outcome>  (1387) 
too moved

>  <fragmenstein_mode>  (1387) 
expansion

>  <fragmenstein_error>  (1387) 


$$$$
C8685-P106
     RDKit          3D

 38 41  0  0  0  0  0  0  0  0999 V2000
    2.6595   -5.3441   16.0582 O   0  0  0  0  0  0  0  0  0  0  0  0
    3.2512   -5.6615   17.0510 C   0  0  0  0  0  0  0  0  0  0  0  0
    2.7918   -6.3271   18.2489 N   0  0  0  0  0  0  0  0  0  0  0  0
    1.4318   -6.7347   18.6714 C   0  0  0  0  0  0  0  0  0  0  0  0
    0.7677   -8.1185   18.7559 C   0  0  0  0  0  0  0  0  0  0  0  0
    0.3141   -8.5961   20.0077 C   0  0  0  0  0  0  0  0  0  0  0  0
   -0.6036   -9.6838   20.1474 C   0  0  0  0  0  0  0  0  0  0  0  0
   -1.1177  -10.3775   19.0437 C   0  0  0  0  0  0  0  0  0  0  0  0
   -2.0070  -11.5851   19.2092 C   0  0  0  0  0  0  0  0  0  0  0  0
   -1.6338  -12.8285   19.4766 N   0  0  0  0  0  0  0  0  0  0  0  0
   -2.7525  -13.6287   19.4310 C   0  0  0  0  0  0  0  0  0  0  0  0
   -3.8607  -12.8632   19.1761 C   0  0  0  0  0  0  0  0  0  0  0  0
   -3.3839  -11.5765   19.0712 N   0  0  0  0  0  0  0  0  0  0  0  0
   -0.6513   -9.9263   17.7903 C   0  0  0  0  0  0  0  0  0  0  0  0
    0.2658   -8.8221   17.6477 C   0  0  0  0  0  0  0  0  0  0  0  0
    4.7729   -5.1310   17.0276 C   0  0  0  0  0  0  0  0  0  0  0  0
    4.8437   -3.6676   15.7730 C   0  0  0  0  0  0  0  0  0  0  0  0
    6.2129   -3.1715   15.2344 C   0  0  0  0  0  0  0  0  0  0  0  0
    7.5887   -3.4504   16.3191 N   0  0  0  0  0  0  0  0  0  0  0  0
    8.5738   -1.8187   16.8160 C   0  0  0  0  0  0  0  0  0  0  0  0
    8.4821   -1.8073   18.8209 C   0  0  0  0  0  0  0  0  0  0  0  0
    8.4005   -3.9102   19.3000 N   0  0  0  0  0  0  0  0  0  0  0  0
    7.1654   -4.6267   18.0538 C   0  0  0  0  0  0  0  0  0  0  0  0
    5.8174   -5.5904   17.9108 N   0  0  0  0  0  0  0  0  0  0  0  0
    3.5891   -6.5102   18.8527 H   0  0  0  0  0  0  0  0  0  0  0  0
    0.7570   -6.1354   18.0442 H   0  0  0  0  0  0  0  0  0  0  0  0
    1.3470   -6.2839   19.6693 H   0  0  0  0  0  0  0  0  0  0  0  0
    0.6575   -8.1184   20.9266 H   0  0  0  0  0  0  0  0  0  0  0  0
   -0.8642  -10.0007   21.1549 H   0  0  0  0  0  0  0  0  0  0  0  0
   -2.6858  -14.6970   19.6003 H   0  0  0  0  0  0  0  0  0  0  0  0
   -4.9090  -13.1002   19.0700 H   0  0  0  0  0  0  0  0  0  0  0  0
   -3.9293  -10.7524   18.8664 H   0  0  0  0  0  0  0  0  0  0  0  0
   -0.9799  -10.4389   16.8870 H   0  0  0  0  0  0  0  0  0  0  0  0
    0.5372   -8.5020   16.6424 H   0  0  0  0  0  0  0  0  0  0  0  0
    3.8679   -3.3844   15.3824 H   0  0  0  0  0  0  0  0  0  0  0  0
    6.3717   -2.3677   14.5215 H   0  0  0  0  0  0  0  0  0  0  0  0
    8.1330   -1.0710   16.1447 H   0  0  0  0  0  0  0  0  0  0  0  0
    7.8504   -1.0053   19.3591 H   0  0  0  0  0  0  0  0  0  0  0  0
  1  2  2  0
  2  3  1  0
  3  4  1  0
  4  5  1  0
  5  6  2  0
  6  7  1  0
  7  8  2  0
  8  9  1  0
  9 10  2  0
 10 11  1  0
 11 12  2  0
 12 13  1  0
  8 14  1  0
 14 15  2  0
  2 16  1  0
 16 17  1  0
 17 18  2  0
 18 19  1  0
 19 20  1  0
 20 21  2  0
 21 22  1  0
 22 23  2  0
 23 24  1  0
 15  5  1  0
 24 16  2  0
 13  9  1  0
 23 19  1  0
  3 25  1  0
  4 26  1  0
  4 27  1  0
  6 28  1  0
  7 29  1  0
 11 30  1  0
 12 31  1  0
 13 32  1  0
 14 33  1  0
 15 34  1  0
 17 35  1  0
 18 36  1  0
 20 37  1  0
 21 38  1  0
M  END
>  <Energy>  (1388) 
1019.8368257932435

>  <compound_id>  (1388) 
8685

>  <target_id>  (1388) 
1

>  <reference_id>  (1388) 
106

>  <inspiration_ids>  (1388) 
[106, 115]

>  <energy_score>  (1388) 
933.0051688304119

>  <distance_score>  (1388) 
13.202306117301704

>  <path>  (1388) 
/opt/xchem-fragalysis-2/maxwin/BulkDock/SCRATCH/511020/C8685-P106/C8685-P106.minimised.mol

>  <scratch_subdir>  (1388) 
/opt/xchem-fragalysis-2/maxwin/BulkDock/SCRATCH/511020/C8685-P106

>  <fragmenstein_runtime>  (1388) 
39.94054698944092

>  <fragmenstein_outcome>  (1388) 
too moved

>  <fragmenstein_mode>  (1388) 
expansion

>  <fragmenstein_error>  (1388) 


$$$$
C8685-P115
     RDKit          3D

 38 41  0  0  0  0  0  0  0  0999 V2000
   -1.3151   -5.6002   20.2001 O   0  0  0  0  0  0  0  0  0  0  0  0
   -0.8869   -6.6671   19.8535 C   0  0  0  0  0  0  0  0  0  0  0  0
   -1.5781   -7.8945   19.4968 N   0  0  0  0  0  0  0  0  0  0  0  0
   -3.0209   -8.1860   19.3517 C   0  0  0  0  0  0  0  0  0  0  0  0
   -3.8346   -9.2287   20.1392 C   0  0  0  0  0  0  0  0  0  0  0  0
   -4.2927   -9.0045   21.4456 C   0  0  0  0  0  0  0  0  0  0  0  0
   -5.2546   -9.8565   22.0919 C   0  0  0  0  0  0  0  0  0  0  0  0
   -5.8106  -10.9900   21.4650 C   0  0  0  0  0  0  0  0  0  0  0  0
   -6.6438  -12.0448   22.1786 C   0  0  0  0  0  0  0  0  0  0  0  0
   -6.9549  -13.2535   21.7154 N   0  0  0  0  0  0  0  0  0  0  0  0
   -7.6306  -13.9255   22.7107 C   0  0  0  0  0  0  0  0  0  0  0  0
   -7.7439  -13.1330   23.8209 C   0  0  0  0  0  0  0  0  0  0  0  0
   -7.1150  -11.9590   23.4811 N   0  0  0  0  0  0  0  0  0  0  0  0
   -5.3837  -11.1873   20.1359 C   0  0  0  0  0  0  0  0  0  0  0  0
   -4.4195  -10.3402   19.4972 C   0  0  0  0  0  0  0  0  0  0  0  0
    0.6828   -6.6337   19.6718 C   0  0  0  0  0  0  0  0  0  0  0  0
    1.4604   -6.0543   20.8376 C   0  0  0  0  0  0  0  0  0  0  0  0
    2.7598   -5.7850   20.6292 C   0  0  0  0  0  0  0  0  0  0  0  0
    3.3220   -6.0917   19.4025 N   0  0  0  0  0  0  0  0  0  0  0  0
    4.6261   -5.9939   18.9888 C   0  0  0  0  0  0  0  0  0  0  0  0
    4.6268   -6.4749   17.7042 C   0  0  0  0  0  0  0  0  0  0  0  0
    3.3639   -6.8453   17.3188 N   0  0  0  0  0  0  0  0  0  0  0  0
    2.5762   -6.6517   18.3641 C   0  0  0  0  0  0  0  0  0  0  0  0
    1.2253   -6.9105   18.5087 N   0  0  0  0  0  0  0  0  0  0  0  0
   -0.8974   -8.5760   19.1721 H   0  0  0  0  0  0  0  0  0  0  0  0
   -3.5355   -7.2255   19.4870 H   0  0  0  0  0  0  0  0  0  0  0  0
   -3.1346   -8.4195   18.2853 H   0  0  0  0  0  0  0  0  0  0  0  0
   -3.9370   -8.1260   21.9793 H   0  0  0  0  0  0  0  0  0  0  0  0
   -5.5263   -9.6057   23.1132 H   0  0  0  0  0  0  0  0  0  0  0  0
   -7.9926  -14.9341   22.5614 H   0  0  0  0  0  0  0  0  0  0  0  0
   -8.1909  -13.2845   24.7927 H   0  0  0  0  0  0  0  0  0  0  0  0
   -7.0079  -11.1550   24.0809 H   0  0  0  0  0  0  0  0  0  0  0  0
   -5.7604  -12.0500   19.5845 H   0  0  0  0  0  0  0  0  0  0  0  0
   -4.1595  -10.5653   18.4628 H   0  0  0  0  0  0  0  0  0  0  0  0
    0.9379   -5.8547   21.7641 H   0  0  0  0  0  0  0  0  0  0  0  0
    3.4026   -5.3616   21.3886 H   0  0  0  0  0  0  0  0  0  0  0  0
    5.4068   -5.6129   19.6294 H   0  0  0  0  0  0  0  0  0  0  0  0
    5.4650   -6.5743   17.0303 H   0  0  0  0  0  0  0  0  0  0  0  0
  1  2  2  0
  2  3  1  0
  3  4  1  0
  4  5  1  0
  5  6  2  0
  6  7  1  0
  7  8  2  0
  8  9  1  0
  9 10  2  0
 10 11  1  0
 11 12  2  0
 12 13  1  0
  8 14  1  0
 14 15  2  0
  2 16  1  0
 16 17  1  0
 17 18  2  0
 18 19  1  0
 19 20  1  0
 20 21  2  0
 21 22  1  0
 22 23  2  0
 23 24  1  0
 15  5  1  0
 24 16  2  0
 13  9  1  0
 23 19  1  0
  3 25  1  0
  4 26  1  0
  4 27  1  0
  6 28  1  0
  7 29  1  0
 11 30  1  0
 12 31  1  0
 13 32  1  0
 14 33  1  0
 15 34  1  0
 17 35  1  0
 18 36  1  0
 20 37  1  0
 21 38  1  0
M  END
>  <Energy>  (1389) 
87.534600493716098

>  <compound_id>  (1389) 
8685

>  <target_id>  (1389) 
1

>  <reference_id>  (1389) 
115

>  <inspiration_ids>  (1389) 
[106, 115]

>  <energy_score>  (1389) 
0.7029435308861594

>  <distance_score>  (1389) 
13.717782836148109

>  <path>  (1389) 
/opt/xchem-fragalysis-2/maxwin/BulkDock/SCRATCH/511020/C8685-P115/C8685-P115.minimised.mol

>  <scratch_subdir>  (1389) 
/opt/xchem-fragalysis-2/maxwin/BulkDock/SCRATCH/511020/C8685-P115

>  <fragmenstein_runtime>  (1389) 
31.623401880264282

>  <fragmenstein_outcome>  (1389) 
too moved

>  <fragmenstein_mode>  (1389) 
expansion

>  <fragmenstein_error>  (1389) 


$$$$
C47255-P106
     RDKit          3D

 38 41  0  0  0  0  0  0  0  0999 V2000
    1.1737  -13.7089   26.3086 O   0  0  0  0  0  0  0  0  0  0  0  0
    0.9143  -13.7502   25.1180 C   0  0  0  0  0  0  0  0  0  0  0  0
   -0.5389  -14.4900   24.2330 N   0  0  0  0  0  0  0  0  0  0  0  0
   -2.0499  -15.5625   24.8817 C   0  0  0  0  0  0  0  0  0  0  0  0
   -2.0734  -17.5093   25.4769 C   0  0  0  0  0  0  0  0  0  0  0  0
   -0.8329  -17.8744   25.9869 C   0  0  0  0  0  0  0  0  0  0  0  0
   -0.6767  -18.1595   27.1999 C   0  0  0  0  0  0  0  0  0  0  0  0
   -1.1391  -19.3960   27.0135 C   0  0  0  0  0  0  0  0  0  0  0  0
   -2.3674  -19.2676   26.7089 C   0  0  0  0  0  0  0  0  0  0  0  0
   -2.5822  -19.0150   25.4815 C   0  0  0  0  0  0  0  0  0  0  0  0
   -4.1971  -19.9699   24.8603 C   0  0  0  0  0  0  0  0  0  0  0  0
   -4.7788  -20.9706   25.5849 N   0  0  0  0  0  0  0  0  0  0  0  0
   -5.8116  -21.5699   24.9485 C   0  0  0  0  0  0  0  0  0  0  0  0
   -6.1949  -20.7635   23.9349 C   0  0  0  0  0  0  0  0  0  0  0  0
   -5.3123  -19.7205   23.9963 N   0  0  0  0  0  0  0  0  0  0  0  0
    2.3037  -13.0626   24.0434 C   0  0  0  0  0  0  0  0  0  0  0  0
    3.1218  -13.8449   23.2143 C   0  0  0  0  0  0  0  0  0  0  0  0
    3.5161  -12.9413   21.7486 N   0  0  0  0  0  0  0  0  0  0  0  0
    4.4073  -12.9702   20.4759 C   0  0  0  0  0  0  0  0  0  0  0  0
    5.5490  -12.3570   20.1836 C   0  0  0  0  0  0  0  0  0  0  0  0
    5.7266  -11.3745   21.2020 C   0  0  0  0  0  0  0  0  0  0  0  0
    4.8269  -11.0319   22.2018 N   0  0  0  0  0  0  0  0  0  0  0  0
    3.6578  -11.8515   22.4839 C   0  0  0  0  0  0  0  0  0  0  0  0
    2.5433  -11.8594   23.3137 N   0  0  0  0  0  0  0  0  0  0  0  0
   -0.4875  -14.2773   23.2488 H   0  0  0  0  0  0  0  0  0  0  0  0
   -2.2511  -14.9318   25.7482 H   0  0  0  0  0  0  0  0  0  0  0  0
   -2.8358  -15.4749   24.1395 H   0  0  0  0  0  0  0  0  0  0  0  0
   -0.0660  -18.4639   25.5061 H   0  0  0  0  0  0  0  0  0  0  0  0
    0.2648  -17.8711   27.6558 H   0  0  0  0  0  0  0  0  0  0  0  0
   -1.0155  -20.2801   27.6843 H   0  0  0  0  0  0  0  0  0  0  0  0
   -2.8521  -18.4208   27.2921 H   0  0  0  0  0  0  0  0  0  0  0  0
   -6.2190  -22.5068   25.2975 H   0  0  0  0  0  0  0  0  0  0  0  0
   -7.0061  -20.8036   23.2231 H   0  0  0  0  0  0  0  0  0  0  0  0
   -5.4337  -18.8860   23.4500 H   0  0  0  0  0  0  0  0  0  0  0  0
    3.3826  -14.8833   23.1442 H   0  0  0  0  0  0  0  0  0  0  0  0
    4.0120  -13.3760   19.5551 H   0  0  0  0  0  0  0  0  0  0  0  0
    6.0672  -12.3612   19.2396 H   0  0  0  0  0  0  0  0  0  0  0  0
    6.7885  -11.0765   21.2877 H   0  0  0  0  0  0  0  0  0  0  0  0
  1  2  2  0
  2  3  1  0
  3  4  1  0
  4  5  1  0
  5  6  2  0
  6  7  1  0
  7  8  2  0
  8  9  1  0
  9 10  2  0
 10 11  1  0
 11 12  2  0
 12 13  1  0
 13 14  2  0
 14 15  1  0
  2 16  1  0
 16 17  2  0
 17 18  1  0
 18 19  1  0
 19 20  2  0
 20 21  1  0
 21 22  2  0
 22 23  1  0
 23 24  2  0
 10  5  1  0
 15 11  1  0
 24 16  1  0
 23 18  1  0
  3 25  1  0
  4 26  1  0
  4 27  1  0
  6 28  1  0
  7 29  1  0
  8 30  1  0
  9 31  1  0
 13 32  1  0
 14 33  1  0
 15 34  1  0
 17 35  1  0
 19 36  1  0
 20 37  1  0
 21 38  1  0
M  END
>  <Energy>  (1390) 
845.2855452916865

>  <compound_id>  (1390) 
47255

>  <target_id>  (1390) 
1

>  <reference_id>  (1390) 
106

>  <inspiration_ids>  (1390) 
[106, 115]

>  <energy_score>  (1390) 
767.104748119489

>  <distance_score>  (1390) 
13.812451872331946

>  <path>  (1390) 
/opt/xchem-fragalysis-2/maxwin/BulkDock/SCRATCH/511020/C47255-P106/C47255-P106.minimised.mol

>  <scratch_subdir>  (1390) 
/opt/xchem-fragalysis-2/maxwin/BulkDock/SCRATCH/511020/C47255-P106

>  <fragmenstein_runtime>  (1390) 
29.453983306884766

>  <fragmenstein_outcome>  (1390) 
too moved

>  <fragmenstein_mode>  (1390) 
expansion

>  <fragmenstein_error>  (1390) 


$$$$
C47255-P115
     RDKit          3D

 38 41  0  0  0  0  0  0  0  0999 V2000
    4.4271  -10.9497   22.5086 O   0  0  0  0  0  0  0  0  0  0  0  0
    3.2708  -10.6301   22.8421 C   0  0  0  0  0  0  0  0  0  0  0  0
    2.0162  -11.8040   23.5555 N   0  0  0  0  0  0  0  0  0  0  0  0
    2.1292  -13.3659   24.0127 C   0  0  0  0  0  0  0  0  0  0  0  0
    0.4810  -14.5495   24.2224 C   0  0  0  0  0  0  0  0  0  0  0  0
    2.0403  -15.6202   23.6344 C   0  0  0  0  0  0  0  0  0  0  0  0
    2.4172  -17.5232   24.2808 C   0  0  0  0  0  0  0  0  0  0  0  0
    1.0049  -18.6003   24.7437 C   0  0  0  0  0  0  0  0  0  0  0  0
   -0.5066  -17.6347   25.5084 C   0  0  0  0  0  0  0  0  0  0  0  0
   -1.0739  -15.8596   24.5963 C   0  0  0  0  0  0  0  0  0  0  0  0
   -2.2670  -17.3797   25.3023 C   0  0  0  0  0  0  0  0  0  0  0  0
   -1.8208  -18.9165   24.9873 N   0  0  0  0  0  0  0  0  0  0  0  0
   -2.5664  -20.3960   24.0683 C   0  0  0  0  0  0  0  0  0  0  0  0
   -3.7706  -19.9578   24.7197 C   0  0  0  0  0  0  0  0  0  0  0  0
   -2.5099  -19.0990   25.8286 N   0  0  0  0  0  0  0  0  0  0  0  0
    2.7675   -8.6239   22.7575 C   0  0  0  0  0  0  0  0  0  0  0  0
    3.6432   -7.4511   23.1307 C   0  0  0  0  0  0  0  0  0  0  0  0
    2.9689   -6.2728   22.9461 N   0  0  0  0  0  0  0  0  0  0  0  0
    3.5309   -4.9958   22.9211 C   0  0  0  0  0  0  0  0  0  0  0  0
    2.8414   -3.9926   22.3703 C   0  0  0  0  0  0  0  0  0  0  0  0
    1.4929   -4.3907   21.8745 C   0  0  0  0  0  0  0  0  0  0  0  0
    0.9427   -5.5699   21.9246 N   0  0  0  0  0  0  0  0  0  0  0  0
    1.6947   -6.5881   22.4588 C   0  0  0  0  0  0  0  0  0  0  0  0
    1.5203   -7.9265   22.3798 N   0  0  0  0  0  0  0  0  0  0  0  0
    1.1477  -11.3330   23.6587 H   0  0  0  0  0  0  0  0  0  0  0  0
    1.9519  -13.1337   25.0641 H   0  0  0  0  0  0  0  0  0  0  0  0
    3.1762  -13.6475   23.9687 H   0  0  0  0  0  0  0  0  0  0  0  0
    3.0608  -15.1891   23.3300 H   0  0  0  0  0  0  0  0  0  0  0  0
    3.3218  -17.9727   23.9340 H   0  0  0  0  0  0  0  0  0  0  0  0
    2.2411  -18.3197   25.3363 H   0  0  0  0  0  0  0  0  0  0  0  0
   -0.6198  -17.8856   26.6157 H   0  0  0  0  0  0  0  0  0  0  0  0
   -1.9686  -21.1381   23.5607 H   0  0  0  0  0  0  0  0  0  0  0  0
   -4.6656  -20.3711   25.1862 H   0  0  0  0  0  0  0  0  0  0  0  0
   -2.8901  -18.9391   26.7202 H   0  0  0  0  0  0  0  0  0  0  0  0
    4.6687   -7.3943   23.4580 H   0  0  0  0  0  0  0  0  0  0  0  0
    4.5389   -4.8868   23.2984 H   0  0  0  0  0  0  0  0  0  0  0  0
    3.1851   -2.9752   22.2672 H   0  0  0  0  0  0  0  0  0  0  0  0
    0.9063   -3.5676   21.4327 H   0  0  0  0  0  0  0  0  0  0  0  0
  1  2  2  0
  2  3  1  0
  3  4  1  0
  4  5  1  0
  5  6  2  0
  6  7  1  0
  7  8  2  0
  8  9  1  0
  9 10  2  0
 10 11  1  0
 11 12  2  0
 12 13  1  0
 13 14  2  0
 14 15  1  0
  2 16  1  0
 16 17  2  0
 17 18  1  0
 18 19  1  0
 19 20  2  0
 20 21  1  0
 21 22  2  0
 22 23  1  0
 23 24  2  0
 10  5  1  0
 15 11  1  0
 24 16  1  0
 23 18  1  0
  3 25  1  0
  4 26  1  0
  4 27  1  0
  6 28  1  0
  7 29  1  0
  8 30  1  0
  9 31  1  0
 13 32  1  0
 14 33  1  0
 15 34  1  0
 17 35  1  0
 19 36  1  0
 20 37  1  0
 21 38  1  0
M  END
>  <Energy>  (1391) 
2011.0295426193591

>  <compound_id>  (1391) 
47255

>  <target_id>  (1391) 
1

>  <reference_id>  (1391) 
115

>  <inspiration_ids>  (1391) 
[106, 115]

>  <energy_score>  (1391) 
1932.8487454471997

>  <distance_score>  (1391) 
12.835883958118789

>  <path>  (1391) 
/opt/xchem-fragalysis-2/maxwin/BulkDock/SCRATCH/511020/C47255-P115/C47255-P115.minimised.mol

>  <scratch_subdir>  (1391) 
/opt/xchem-fragalysis-2/maxwin/BulkDock/SCRATCH/511020/C47255-P115

>  <fragmenstein_runtime>  (1391) 
19.91031765937805

>  <fragmenstein_outcome>  (1391) 
too moved

>  <fragmenstein_mode>  (1391) 
expansion

>  <fragmenstein_error>  (1391) 


$$$$
C47256-P106
     RDKit          3D

 35 38  0  0  0  0  0  0  0  0999 V2000
    3.1447  -13.6674   23.6355 O   0  0  0  0  0  0  0  0  0  0  0  0
    2.9937  -13.5808   24.8207 C   0  0  0  0  0  0  0  0  0  0  0  0
    1.1511  -13.7227   25.5295 N   0  0  0  0  0  0  0  0  0  0  0  0
   -0.6112  -14.1572   24.6274 C   0  0  0  0  0  0  0  0  0  0  0  0
   -1.7964  -14.3628   25.8093 C   0  0  0  0  0  0  0  0  0  0  0  0
   -2.0606  -15.5502   27.1840 C   0  0  0  0  0  0  0  0  0  0  0  0
   -2.4152  -17.0251   26.7998 C   0  0  0  0  0  0  0  0  0  0  0  0
   -2.4859  -18.8050   27.1017 C   0  0  0  0  0  0  0  0  0  0  0  0
   -1.6404  -19.8281   27.0939 N   0  0  0  0  0  0  0  0  0  0  0  0
   -2.2555  -21.0269   27.6060 C   0  0  0  0  0  0  0  0  0  0  0  0
   -3.6010  -20.9396   27.6343 C   0  0  0  0  0  0  0  0  0  0  0  0
   -3.7859  -19.6160   27.4802 N   0  0  0  0  0  0  0  0  0  0  0  0
   -2.5157  -16.7006   25.3941 C   0  0  0  0  0  0  0  0  0  0  0  0
   -1.6927  -15.3664   24.4890 C   0  0  0  0  0  0  0  0  0  0  0  0
    4.7882  -13.5082   25.7244 C   0  0  0  0  0  0  0  0  0  0  0  0
    6.0460  -12.5814   25.3307 C   0  0  0  0  0  0  0  0  0  0  0  0
    6.8156  -12.0074   26.2920 N   0  0  0  0  0  0  0  0  0  0  0  0
    7.8813  -11.1219   26.0825 C   0  0  0  0  0  0  0  0  0  0  0  0
    8.2268  -10.2705   27.0526 C   0  0  0  0  0  0  0  0  0  0  0  0
    7.3726  -10.3992   28.2642 C   0  0  0  0  0  0  0  0  0  0  0  0
    6.4024  -11.2500   28.4585 N   0  0  0  0  0  0  0  0  0  0  0  0
    6.1056  -12.1238   27.4420 C   0  0  0  0  0  0  0  0  0  0  0  0
    5.1310  -13.0703   27.3002 N   0  0  0  0  0  0  0  0  0  0  0  0
    1.1698  -13.5516   26.5033 H   0  0  0  0  0  0  0  0  0  0  0  0
   -2.4698  -13.4719   25.8006 H   0  0  0  0  0  0  0  0  0  0  0  0
   -1.8783  -15.1238   28.1552 H   0  0  0  0  0  0  0  0  0  0  0  0
   -1.6547  -21.8891   27.8668 H   0  0  0  0  0  0  0  0  0  0  0  0
   -4.4005  -21.6341   27.8227 H   0  0  0  0  0  0  0  0  0  0  0  0
   -4.6502  -19.1086   27.3929 H   0  0  0  0  0  0  0  0  0  0  0  0
   -2.2213  -17.6951   25.1012 H   0  0  0  0  0  0  0  0  0  0  0  0
   -2.4375  -15.2525   23.6865 H   0  0  0  0  0  0  0  0  0  0  0  0
    6.2845  -12.0667   24.4051 H   0  0  0  0  0  0  0  0  0  0  0  0
    8.3499  -11.1195   25.1060 H   0  0  0  0  0  0  0  0  0  0  0  0
    9.0052   -9.5253   26.9944 H   0  0  0  0  0  0  0  0  0  0  0  0
    7.6115   -9.6918   29.0762 H   0  0  0  0  0  0  0  0  0  0  0  0
  1  2  2  0
  2  3  1  0
  3  4  1  0
  4  5  2  0
  5  6  1  0
  6  7  2  0
  7  8  1  0
  8  9  2  0
  9 10  1  0
 10 11  2  0
 11 12  1  0
  7 13  1  0
 13 14  2  0
  2 15  1  0
 15 16  2  0
 16 17  1  0
 17 18  1  0
 18 19  2  0
 19 20  1  0
 20 21  2  0
 21 22  1  0
 22 23  2  0
 14  4  1  0
 23 15  1  0
 12  8  1  0
 22 17  1  0
  3 24  1  0
  5 25  1  0
  6 26  1  0
 10 27  1  0
 11 28  1  0
 12 29  1  0
 13 30  1  0
 14 31  1  0
 16 32  1  0
 18 33  1  0
 19 34  1  0
 20 35  1  0
M  END
>  <Energy>  (1392) 
940.32902278512552

>  <compound_id>  (1392) 
47256

>  <target_id>  (1392) 
1

>  <reference_id>  (1392) 
106

>  <inspiration_ids>  (1392) 
[106, 115]

>  <energy_score>  (1392) 
846.9887927785531

>  <distance_score>  (1392) 
14.406302613906286

>  <path>  (1392) 
/opt/xchem-fragalysis-2/maxwin/BulkDock/SCRATCH/511020/C47256-P106/C47256-P106.minimised.mol

>  <scratch_subdir>  (1392) 
/opt/xchem-fragalysis-2/maxwin/BulkDock/SCRATCH/511020/C47256-P106

>  <fragmenstein_runtime>  (1392) 
17.32918405532837

>  <fragmenstein_outcome>  (1392) 
too moved

>  <fragmenstein_mode>  (1392) 
expansion

>  <fragmenstein_error>  (1392) 


$$$$
C47256-P115
     RDKit          3D

 35 38  0  0  0  0  0  0  0  0999 V2000
    4.6934  -13.9834   12.1642 O   0  0  0  0  0  0  0  0  0  0  0  0
    5.4962  -14.4554   12.9182 C   0  0  0  0  0  0  0  0  0  0  0  0
    5.5018  -15.7469   13.6235 N   0  0  0  0  0  0  0  0  0  0  0  0
    4.5056  -16.7848   13.6987 C   0  0  0  0  0  0  0  0  0  0  0  0
    4.8063  -18.0485   14.2137 C   0  0  0  0  0  0  0  0  0  0  0  0
    3.7841  -18.9322   14.7118 C   0  0  0  0  0  0  0  0  0  0  0  0
    2.4301  -18.5571   14.7978 C   0  0  0  0  0  0  0  0  0  0  0  0
    1.3718  -19.3395   15.5627 C   0  0  0  0  0  0  0  0  0  0  0  0
    0.0585  -19.1267   15.5528 N   0  0  0  0  0  0  0  0  0  0  0  0
   -0.5287  -20.1070   16.3250 C   0  0  0  0  0  0  0  0  0  0  0  0
    0.4291  -20.9453   16.8311 C   0  0  0  0  0  0  0  0  0  0  0  0
    1.6208  -20.3872   16.4415 N   0  0  0  0  0  0  0  0  0  0  0  0
    2.1294  -17.3522   14.1392 C   0  0  0  0  0  0  0  0  0  0  0  0
    3.1368  -16.5047   13.5644 C   0  0  0  0  0  0  0  0  0  0  0  0
    6.6629  -13.5093   13.2930 C   0  0  0  0  0  0  0  0  0  0  0  0
    7.7896  -13.6836   14.0873 C   0  0  0  0  0  0  0  0  0  0  0  0
    8.3129  -12.4189   14.3389 N   0  0  0  0  0  0  0  0  0  0  0  0
    9.3880  -12.0353   15.1378 C   0  0  0  0  0  0  0  0  0  0  0  0
    9.6549  -10.7337   15.3097 C   0  0  0  0  0  0  0  0  0  0  0  0
    8.7291   -9.8065   14.6023 C   0  0  0  0  0  0  0  0  0  0  0  0
    7.7503  -10.1413   13.8177 N   0  0  0  0  0  0  0  0  0  0  0  0
    7.5199  -11.4873   13.6786 C   0  0  0  0  0  0  0  0  0  0  0  0
    6.5669  -12.1227   13.0219 N   0  0  0  0  0  0  0  0  0  0  0  0
    6.3782  -15.8522   14.1138 H   0  0  0  0  0  0  0  0  0  0  0  0
    5.8432  -18.3705   14.2758 H   0  0  0  0  0  0  0  0  0  0  0  0
    4.0942  -19.9002   15.1004 H   0  0  0  0  0  0  0  0  0  0  0  0
   -1.6013  -20.1517   16.4586 H   0  0  0  0  0  0  0  0  0  0  0  0
    0.3814  -21.8144   17.4705 H   0  0  0  0  0  0  0  0  0  0  0  0
    2.5357  -20.6999   16.7277 H   0  0  0  0  0  0  0  0  0  0  0  0
    1.0921  -17.0119   14.1101 H   0  0  0  0  0  0  0  0  0  0  0  0
    2.8005  -15.5634   13.1296 H   0  0  0  0  0  0  0  0  0  0  0  0
    8.2268  -14.5523   14.5546 H   0  0  0  0  0  0  0  0  0  0  0  0
    9.9692  -12.8205   15.6032 H   0  0  0  0  0  0  0  0  0  0  0  0
   10.4715  -10.3536   15.9044 H   0  0  0  0  0  0  0  0  0  0  0  0
    8.9116   -8.7388   14.7835 H   0  0  0  0  0  0  0  0  0  0  0  0
  1  2  2  0
  2  3  1  0
  3  4  1  0
  4  5  2  0
  5  6  1  0
  6  7  2  0
  7  8  1  0
  8  9  2  0
  9 10  1  0
 10 11  2  0
 11 12  1  0
  7 13  1  0
 13 14  2  0
  2 15  1  0
 15 16  2  0
 16 17  1  0
 17 18  1  0
 18 19  2  0
 19 20  1  0
 20 21  2  0
 21 22  1  0
 22 23  2  0
 14  4  1  0
 23 15  1  0
 12  8  1  0
 22 17  1  0
  3 24  1  0
  5 25  1  0
  6 26  1  0
 10 27  1  0
 11 28  1  0
 12 29  1  0
 13 30  1  0
 14 31  1  0
 16 32  1  0
 18 33  1  0
 19 34  1  0
 20 35  1  0
M  END
>  <Energy>  (1393) 
89.498493295808089

>  <compound_id>  (1393) 
47256

>  <target_id>  (1393) 
1

>  <reference_id>  (1393) 
115

>  <inspiration_ids>  (1393) 
[106, 115]

>  <energy_score>  (1393) 
-3.8417367107515474

>  <distance_score>  (1393) 
14.890029740014098

>  <path>  (1393) 
/opt/xchem-fragalysis-2/maxwin/BulkDock/SCRATCH/511020/C47256-P115/C47256-P115.minimised.mol

>  <scratch_subdir>  (1393) 
/opt/xchem-fragalysis-2/maxwin/BulkDock/SCRATCH/511020/C47256-P115

>  <fragmenstein_runtime>  (1393) 
36.46027159690857

>  <fragmenstein_outcome>  (1393) 
too moved

>  <fragmenstein_mode>  (1393) 
expansion

>  <fragmenstein_error>  (1393) 


$$$$
C47257-P106
     RDKit          3D

 35 38  0  0  0  0  0  0  0  0999 V2000
    0.1561  -10.3297   27.5680 O   0  0  0  0  0  0  0  0  0  0  0  0
    1.0149  -11.1616   27.4074 C   0  0  0  0  0  0  0  0  0  0  0  0
    0.6116  -12.7302   26.3401 N   0  0  0  0  0  0  0  0  0  0  0  0
   -1.0948  -13.3267   25.5211 C   0  0  0  0  0  0  0  0  0  0  0  0
   -1.5980  -14.5676   25.0647 C   0  0  0  0  0  0  0  0  0  0  0  0
   -2.8770  -15.0573   24.7313 C   0  0  0  0  0  0  0  0  0  0  0  0
   -3.9711  -14.1968   24.6227 C   0  0  0  0  0  0  0  0  0  0  0  0
   -3.8566  -12.8063   25.1593 C   0  0  0  0  0  0  0  0  0  0  0  0
   -5.1886  -12.2017   25.5571 C   0  0  0  0  0  0  0  0  0  0  0  0
   -6.3476  -12.5752   25.0237 N   0  0  0  0  0  0  0  0  0  0  0  0
   -7.3004  -12.4595   26.0044 C   0  0  0  0  0  0  0  0  0  0  0  0
   -6.7395  -11.9643   27.1521 C   0  0  0  0  0  0  0  0  0  0  0  0
   -5.4261  -11.7145   26.8330 N   0  0  0  0  0  0  0  0  0  0  0  0
   -2.5561  -12.4354   25.6104 C   0  0  0  0  0  0  0  0  0  0  0  0
    2.4407  -10.7068   28.4021 C   0  0  0  0  0  0  0  0  0  0  0  0
    2.1447   -9.1941   28.9024 C   0  0  0  0  0  0  0  0  0  0  0  0
    2.9809   -8.2172   29.1361 N   0  0  0  0  0  0  0  0  0  0  0  0
    4.2893   -8.5296   28.9885 C   0  0  0  0  0  0  0  0  0  0  0  0
    5.3081   -7.8123   28.5641 N   0  0  0  0  0  0  0  0  0  0  0  0
    6.3666   -8.6801   28.4987 C   0  0  0  0  0  0  0  0  0  0  0  0
    5.9749   -9.9487   28.8746 C   0  0  0  0  0  0  0  0  0  0  0  0
    4.6173   -9.8630   29.1042 N   0  0  0  0  0  0  0  0  0  0  0  0
    3.6243  -10.9008   29.1039 C   0  0  0  0  0  0  0  0  0  0  0  0
    1.4556  -13.2801   26.2345 H   0  0  0  0  0  0  0  0  0  0  0  0
   -0.9355  -14.9896   24.3427 H   0  0  0  0  0  0  0  0  0  0  0  0
   -2.8324  -16.0896   24.5968 H   0  0  0  0  0  0  0  0  0  0  0  0
   -4.9542  -14.5741   24.3152 H   0  0  0  0  0  0  0  0  0  0  0  0
   -8.3292  -12.7460   25.8279 H   0  0  0  0  0  0  0  0  0  0  0  0
   -7.1423  -11.7504   28.1315 H   0  0  0  0  0  0  0  0  0  0  0  0
   -4.7081  -11.4509   27.4916 H   0  0  0  0  0  0  0  0  0  0  0  0
   -2.5715  -11.4078   25.9616 H   0  0  0  0  0  0  0  0  0  0  0  0
    1.0742   -8.9735   29.0538 H   0  0  0  0  0  0  0  0  0  0  0  0
    7.3503   -8.3477   28.1898 H   0  0  0  0  0  0  0  0  0  0  0  0
    6.5119  -10.8853   28.9211 H   0  0  0  0  0  0  0  0  0  0  0  0
    4.1087  -11.8536   29.2214 H   0  0  0  0  0  0  0  0  0  0  0  0
  1  2  2  0
  2  3  1  0
  3  4  1  0
  4  5  2  0
  5  6  1  0
  6  7  2  0
  7  8  1  0
  8  9  1  0
  9 10  2  0
 10 11  1  0
 11 12  2  0
 12 13  1  0
  8 14  2  0
  2 15  1  0
 15 16  1  0
 16 17  2  0
 17 18  1  0
 18 19  2  0
 19 20  1  0
 20 21  2  0
 21 22  1  0
 22 23  1  0
 14  4  1  0
 23 15  2  0
 13  9  1  0
 22 18  1  0
  3 24  1  0
  5 25  1  0
  6 26  1  0
  7 27  1  0
 11 28  1  0
 12 29  1  0
 13 30  1  0
 14 31  1  0
 16 32  1  0
 20 33  1  0
 21 34  1  0
 23 35  1  0
M  END
>  <Energy>  (1394) 
409.89800565610494

>  <compound_id>  (1394) 
47257

>  <target_id>  (1394) 
1

>  <reference_id>  (1394) 
106

>  <inspiration_ids>  (1394) 
[106, 115]

>  <energy_score>  (1394) 
344.15806926935966

>  <distance_score>  (1394) 
16.972303826286073

>  <path>  (1394) 
/opt/xchem-fragalysis-2/maxwin/BulkDock/SCRATCH/511020/C47257-P106/C47257-P106.minimised.mol

>  <scratch_subdir>  (1394) 
/opt/xchem-fragalysis-2/maxwin/BulkDock/SCRATCH/511020/C47257-P106

>  <fragmenstein_runtime>  (1394) 
30.162920713424683

>  <fragmenstein_outcome>  (1394) 
too moved

>  <fragmenstein_mode>  (1394) 
expansion

>  <fragmenstein_error>  (1394) 


$$$$
C47257-P115
     RDKit          3D

 35 38  0  0  0  0  0  0  0  0999 V2000
    3.4312  -13.8729   14.1709 O   0  0  0  0  0  0  0  0  0  0  0  0
    2.7817  -13.1374   14.8701 C   0  0  0  0  0  0  0  0  0  0  0  0
    1.6098  -13.4037   15.6976 N   0  0  0  0  0  0  0  0  0  0  0  0
    0.9345  -14.6348   16.0042 C   0  0  0  0  0  0  0  0  0  0  0  0
    1.4934  -15.8106   15.4908 C   0  0  0  0  0  0  0  0  0  0  0  0
    0.9775  -17.0674   15.8014 C   0  0  0  0  0  0  0  0  0  0  0  0
   -0.1202  -17.1926   16.6482 C   0  0  0  0  0  0  0  0  0  0  0  0
   -0.7624  -16.0673   17.1889 C   0  0  0  0  0  0  0  0  0  0  0  0
   -1.9512  -16.2883   18.1006 C   0  0  0  0  0  0  0  0  0  0  0  0
   -2.6209  -15.3864   18.8050 N   0  0  0  0  0  0  0  0  0  0  0  0
   -3.6754  -16.0448   19.4087 C   0  0  0  0  0  0  0  0  0  0  0  0
   -3.6889  -17.3650   19.0477 C   0  0  0  0  0  0  0  0  0  0  0  0
   -2.5482  -17.5291   18.3149 N   0  0  0  0  0  0  0  0  0  0  0  0
   -0.2240  -14.7765   16.8269 C   0  0  0  0  0  0  0  0  0  0  0  0
    3.3989  -11.7093   14.9265 C   0  0  0  0  0  0  0  0  0  0  0  0
    3.1230  -10.4831   15.7598 C   0  0  0  0  0  0  0  0  0  0  0  0
    3.7830   -9.3516   15.7923 N   0  0  0  0  0  0  0  0  0  0  0  0
    4.8940   -9.2732   15.0016 C   0  0  0  0  0  0  0  0  0  0  0  0
    5.7724   -8.3015   14.8455 N   0  0  0  0  0  0  0  0  0  0  0  0
    6.6993   -8.7886   13.9530 C   0  0  0  0  0  0  0  0  0  0  0  0
    6.3800  -10.0446   13.5267 C   0  0  0  0  0  0  0  0  0  0  0  0
    5.2316  -10.3474   14.1958 N   0  0  0  0  0  0  0  0  0  0  0  0
    4.4942  -11.5136   14.1528 C   0  0  0  0  0  0  0  0  0  0  0  0
    1.2759  -12.5376   16.0817 H   0  0  0  0  0  0  0  0  0  0  0  0
    2.3682  -15.7896   14.8472 H   0  0  0  0  0  0  0  0  0  0  0  0
    1.4532  -17.9591   15.3987 H   0  0  0  0  0  0  0  0  0  0  0  0
   -0.4459  -18.2037   16.8729 H   0  0  0  0  0  0  0  0  0  0  0  0
   -4.3766  -15.5192   20.0416 H   0  0  0  0  0  0  0  0  0  0  0  0
   -4.3580  -18.1844   19.2619 H   0  0  0  0  0  0  0  0  0  0  0  0
   -2.2279  -18.4057   17.9328 H   0  0  0  0  0  0  0  0  0  0  0  0
   -0.7251  -13.8922   17.2112 H   0  0  0  0  0  0  0  0  0  0  0  0
    2.2364  -10.5506   16.4023 H   0  0  0  0  0  0  0  0  0  0  0  0
    7.5708   -8.2302   13.6627 H   0  0  0  0  0  0  0  0  0  0  0  0
    6.8633  -10.7294   12.8456 H   0  0  0  0  0  0  0  0  0  0  0  0
    4.8903  -12.2760   13.4903 H   0  0  0  0  0  0  0  0  0  0  0  0
  1  2  2  0
  2  3  1  0
  3  4  1  0
  4  5  2  0
  5  6  1  0
  6  7  2  0
  7  8  1  0
  8  9  1  0
  9 10  2  0
 10 11  1  0
 11 12  2  0
 12 13  1  0
  8 14  2  0
  2 15  1  0
 15 16  1  0
 16 17  2  0
 17 18  1  0
 18 19  2  0
 19 20  1  0
 20 21  2  0
 21 22  1  0
 22 23  1  0
 14  4  1  0
 23 15  2  0
 13  9  1  0
 22 18  1  0
  3 24  1  0
  5 25  1  0
  6 26  1  0
  7 27  1  0
 11 28  1  0
 12 29  1  0
 13 30  1  0
 14 31  1  0
 16 32  1  0
 20 33  1  0
 21 34  1  0
 23 35  1  0
M  END
