ver_1.2
     RDKit          3D

 21 23  0  0  0  0  0  0  0  0999 V2000
    4.9490   -2.0567    1.0234 O   0  0  0  0  0  0  0  0  0  0  0  0
    3.9703   -1.1168    0.7967 C   0  0  0  0  0  0  0  0  0  0  0  0
    2.7465   -1.4143    1.0319 N   0  0  0  0  0  0  0  0  0  0  0  0
    1.7078   -0.4068    0.7878 C   0  0  0  0  0  0  0  0  0  0  0  0
    0.4625   -1.1740    0.4126 C   0  0  0  0  0  0  0  0  0  0  0  0
   -0.5920   -0.2142    0.1622 N   0  0  0  0  0  0  0  0  0  0  0  0
   -1.8696   -0.7347   -0.2118 C   0  0  0  0  0  0  0  0  0  0  0  0
   -2.1182   -2.0851   -0.3368 C   0  0  0  0  0  0  0  0  0  0  0  0
   -3.3377   -2.6193   -0.6953 C   0  0  0  0  0  0  0  0  0  0  0  0
   -4.3925   -1.7594   -0.9500 C   0  0  0  0  0  0  0  0  0  0  0  0
   -4.1599   -0.4156   -0.8297 C   0  0  0  0  0  0  0  0  0  0  0  0
   -5.0022    0.6389   -1.0177 N   0  0  0  0  0  0  0  0  0  0  0  0
   -4.2995    1.7803   -0.7763 C   0  0  0  0  0  0  0  0  0  0  0  0
   -4.9856    3.3876   -0.8981 Cl  0  0  0  0  0  0  0  0  0  0  0  0
   -3.0522    1.4509   -0.4462 O   0  0  0  0  0  0  0  0  0  0  0  0
   -2.9418    0.1245   -0.4713 C   0  0  0  0  0  0  0  0  0  0  0  0
    4.3209    0.2599    0.2743 C   0  0  0  0  0  0  0  0  0  0  0  0
    3.4104    1.1468    0.0589 C   0  0  0  0  0  0  0  0  0  0  0  0
    3.8917    2.4630   -0.4561 C   0  0  0  0  0  0  0  0  0  0  0  0
    5.6052    2.2459   -0.5623 S   0  0  0  0  0  0  0  0  0  0  0  0
    5.6869    0.4991    0.0444 C   0  0  0  0  0  0  0  0  0  0  0  0
  1  2  1  0
  2  3  2  3
  3  4  1  0
  4  5  1  0
  5  6  1  0
  6  7  1  0
  7  8  2  0
  8  9  1  0
  9 10  2  0
 10 11  1  0
 11 12  1  0
 12 13  2  0
 13 14  1  0
 13 15  1  0
 15 16  1  0
  2 17  1  0
 17 18  1  0
 18 19  2  0
 19 20  1  0
 20 21  1  0
 16  7  1  0
 21 17  2  0
 16 11  2  0
M  END
>  <ref_url>  (1) 
https://github.com/mwinokan/BulkDock

>  <submitter_name>  (1) 
Max Winokan

>  <submitter_email>  (1) 
max.winokan@diamond.ac.uk

>  <submitter_institution>  (1) 
DLS

>  <generation_date>  (1) 
2025-08-28

>  <method>  (1) 
openbind_d68ev3c_c1_fragmenstein

>  <Energy>  (1) 
Energy

>  <scratch_subdir>  (1) 
scratch_subdir

>  <fragmenstein_runtime>  (1) 
fragmenstein_runtime

>  <fragmenstein_outcome>  (1) 
fragmenstein_outcome

>  <fragmenstein_mode>  (1) 
fragmenstein_mode

>  <fragmenstein_error>  (1) 
fragmenstein_error

>  <HIPPO Pose ID>  (1) 
HIPPO Pose ID

>  <HIPPO Compound ID>  (1) 
HIPPO Compound ID

>  <smiles>  (1) 
smiles

>  <ref_pdb>  (1) 
protein reference

>  <ref_mols>  (1) 
fragment inspirations

>  <original ID>  (1) 
alias

>  <compound inchikey>  (1) 
compound inchikey

>  <distance_score>  (1) 
distance_score

>  <energy_score>  (1) 
energy_score

>  <subsites>  (1) 
subsites

$$$$
OC(=NCCNc1cccc2nc(Cl)oc12)c1ccsc1
     RDKit          3D

 21 23  0  0  0  0  0  0  0  0999 V2000
  -10.8915  -23.0982   13.0102 O   0  0  0  0  0  0  0  0  0  0  0  0
  -11.1859  -24.2845   12.4469 C   0  0  0  0  0  0  0  0  0  0  0  0
  -11.1163  -24.3826   11.1761 N   0  0  0  0  0  0  0  0  0  0  0  0
  -11.0845  -25.7041   10.5595 C   0  0  0  0  0  0  0  0  0  0  0  0
  -10.4629  -25.6059    9.1578 C   0  0  0  0  0  0  0  0  0  0  0  0
   -9.0424  -25.1460    9.1463 N   0  0  0  0  0  0  0  0  0  0  0  0
   -8.9944  -23.7324    9.0067 C   0  0  0  0  0  0  0  0  0  0  0  0
   -8.8094  -22.8655   10.0941 C   0  0  0  0  0  0  0  0  0  0  0  0
   -8.8696  -21.4697    9.9549 C   0  0  0  0  0  0  0  0  0  0  0  0
   -9.1471  -20.8782    8.7157 C   0  0  0  0  0  0  0  0  0  0  0  0
   -9.2640  -21.7154    7.6071 C   0  0  0  0  0  0  0  0  0  0  0  0
   -9.4202  -21.4271    6.2770 N   0  0  0  0  0  0  0  0  0  0  0  0
   -9.3895  -22.6132    5.7050 C   0  0  0  0  0  0  0  0  0  0  0  0
   -9.4480  -22.8066    4.0028 Cl  0  0  0  0  0  0  0  0  0  0  0  0
   -9.2656  -23.6703    6.5603 O   0  0  0  0  0  0  0  0  0  0  0  0
   -9.1639  -23.0816    7.7857 C   0  0  0  0  0  0  0  0  0  0  0  0
  -11.5917  -25.3382   13.3506 C   0  0  0  0  0  0  0  0  0  0  0  0
  -12.8727  -25.9827   13.3451 C   0  0  0  0  0  0  0  0  0  0  0  0
  -12.9943  -26.9261   14.3401 C   0  0  0  0  0  0  0  0  0  0  0  0
  -11.5612  -27.0690   15.2618 S   0  0  0  0  0  0  0  0  0  0  0  0
  -10.7892  -25.8512   14.3465 C   0  0  0  0  0  0  0  0  0  0  0  0
  1  2  1  0
  2  3  2  3
  3  4  1  0
  4  5  1  0
  5  6  1  0
  6  7  1  0
  7  8  2  0
  8  9  1  0
  9 10  2  0
 10 11  1  0
 11 12  1  0
 12 13  2  0
 13 14  1  0
 13 15  1  0
 15 16  1  0
  2 17  1  0
 17 18  1  0
 18 19  2  0
 19 20  1  0
 20 21  1  0
 16  7  1  0
 21 17  2  0
 16 11  2  0
M  END
>  <tags>  (1) 
{'openbind_d68ev3c_c1_fragmenstein', 'fragmenstein_placed'}

>  <fragmenstein_mode>  (1) 
expansion

>  <smiles>  (1) 
C1366-P2

>  <alias>  (1) 
OC(=NCCNc1cccc2nc(Cl)oc12)c1ccsc1

>  <fragmenstein_runtime>  (1) 
1.294677

>  <inchikey>  (1) 
BJXKXVYPGPQTDR-UHFFFAOYSA-N

>  <HIPPO Compound ID>  (1) 
1366

>  <scratch_subdir>  (1) 
/opt/xchem-fragalysis-2/maxwin/BulkDock/SCRATCH/505520/C1366-P2

>  <fragmenstein_outcome>  (1) 
acceptable

>  <fragmenstein_error>  (1) 


>  <ref_pdb>  (1) 
1

>  <HIPPO Pose ID>  (1) 
209

>  <Energy>  (1) 
49.034981

$$$$
N[C@H](c1ccccc1)c1cccc(O)c1
     RDKit          3D

 15 16  0  0  0  0  0  0  0  0999 V2000
   13.5627    0.9548   13.9477 N   0  0  0  0  0  0  0  0  0  0  0  0
   14.4504   -0.2055   14.0458 C   0  0  2  0  0  0  0  0  0  0  0  0
   15.0040   -0.6299   12.6884 C   0  0  0  0  0  0  0  0  0  0  0  0
   15.4122   -1.9491   12.4350 C   0  0  0  0  0  0  0  0  0  0  0  0
   16.0370   -2.2917   11.2343 C   0  0  0  0  0  0  0  0  0  0  0  0
   16.2745   -1.3236   10.2651 C   0  0  0  0  0  0  0  0  0  0  0  0
   15.8768   -0.0114   10.4890 C   0  0  0  0  0  0  0  0  0  0  0  0
   15.2550    0.3322   11.6911 C   0  0  0  0  0  0  0  0  0  0  0  0
   13.7976   -1.3052   14.8731 C   0  0  0  0  0  0  0  0  0  0  0  0
   12.5485   -1.8648   14.5507 C   0  0  0  0  0  0  0  0  0  0  0  0
   12.0126   -2.8958   15.3258 C   0  0  0  0  0  0  0  0  0  0  0  0
   12.7208   -3.3846   16.4238 C   0  0  0  0  0  0  0  0  0  0  0  0
   13.9528   -2.8343   16.7490 C   0  0  0  0  0  0  0  0  0  0  0  0
   14.6202   -3.3324   17.8268 O   0  0  0  0  0  0  0  0  0  0  0  0
   14.4924   -1.8039   15.9894 C   0  0  0  0  0  0  0  0  0  0  0  0
  2  1  1  6
  2  3  1  0
  3  4  2  0
  4  5  1  0
  5  6  2  0
  6  7  1  0
  7  8  2  0
  2  9  1  0
  9 10  2  0
 10 11  1  0
 11 12  2  0
 12 13  1  0
 13 14  1  0
 13 15  2  0
  8  3  1  0
 15  9  1  0
M  END
>  <tags>  (2) 
{'openbind_d68ev3c_c1_fragmenstein', 'fragmenstein_placed'}

>  <fragmenstein_mode>  (2) 
expansion

>  <smiles>  (2) 
C1396-P4

>  <alias>  (2) 
N[C@H](c1ccccc1)c1cccc(O)c1

>  <fragmenstein_runtime>  (2) 
1.786189

>  <inchikey>  (2) 
OXSCMJBFQDXPTM-UHFFFAOYSA-N

>  <HIPPO Compound ID>  (2) 
1396

>  <scratch_subdir>  (2) 
/opt/xchem-fragalysis-2/maxwin/BulkDock/SCRATCH/505520/C1396-P4

>  <fragmenstein_outcome>  (2) 
acceptable

>  <fragmenstein_error>  (2) 


>  <ref_pdb>  (2) 
1

>  <HIPPO Pose ID>  (2) 
235

>  <Energy>  (2) 
24.410026

$$$$
CC[C@@H]1[C@H]([C@@H](N)c2ccccc2)[C@H](F)[C@H](F)C[C@@H]1O
     RDKit          3D

 19 20  0  0  0  0  0  0  0  0999 V2000
   11.9714   -3.6962   13.2814 C   0  0  0  0  0  0  0  0  0  0  0  0
   12.9986   -2.6165   13.4796 C   0  0  0  0  0  0  0  0  0  0  0  0
   12.7769   -1.8066   14.7407 C   0  0  1  0  0  0  0  0  0  0  0  0
   12.2313   -2.5903   15.9580 C   0  0  1  0  0  0  0  0  0  0  0  0
   11.0175   -3.2702   15.7304 O   0  0  0  0  0  0  0  0  0  0  0  0
   13.2436   -3.3794   16.7612 C   0  0  0  0  0  0  0  0  0  0  0  0
   14.4564   -2.5241   17.0808 C   0  0  1  0  0  0  0  0  0  0  0  0
   15.3805   -3.3088   17.6851 F   0  0  0  0  0  0  0  0  0  0  0  0
   15.0768   -1.8902   15.8449 C   0  0  1  0  0  0  0  0  0  0  0  0
   15.4814   -2.9173   15.0560 F   0  0  0  0  0  0  0  0  0  0  0  0
   14.0567   -1.0080   15.1089 C   0  0  1  0  0  0  0  0  0  0  0  0
   14.5945   -0.0599   13.9964 C   0  0  1  0  0  0  0  0  0  0  0  0
   15.4564    0.9404   14.6489 N   0  0  0  0  0  0  0  0  0  0  0  0
   15.2881   -0.5617   12.7422 C   0  0  0  0  0  0  0  0  0  0  0  0
   16.2970   -1.5297   12.7411 C   0  0  0  0  0  0  0  0  0  0  0  0
   16.8944   -1.9604   11.5534 C   0  0  0  0  0  0  0  0  0  0  0  0
   16.5488   -1.3747   10.3439 C   0  0  0  0  0  0  0  0  0  0  0  0
   15.6013   -0.3602   10.3231 C   0  0  0  0  0  0  0  0  0  0  0  0
   14.9710    0.0351   11.5072 C   0  0  0  0  0  0  0  0  0  0  0  0
  1  2  1  0
  3  2  1  6
  3  4  1  0
  4  5  1  6
  4  6  1  0
  6  7  1  0
  7  8  1  6
  7  9  1  0
  9 10  1  6
  9 11  1  0
 11 12  1  6
 12 13  1  1
 12 14  1  0
 14 15  2  0
 15 16  1  0
 16 17  2  0
 17 18  1  0
 18 19  2  0
 11  3  1  0
 19 14  1  0
M  END
>  <tags>  (3) 
{'openbind_d68ev3c_c1_fragmenstein', 'fragmenstein_placed'}

>  <fragmenstein_mode>  (3) 
expansion

>  <smiles>  (3) 
C1413-P4

>  <alias>  (3) 
CC[C@@H]1[C@H]([C@@H](N)c2ccccc2)[C@H](F)[C@H](F)C[C@@H]1O

>  <fragmenstein_runtime>  (3) 
2.219576

>  <inchikey>  (3) 
VMPNWKROZBMPNO-UHFFFAOYSA-N

>  <HIPPO Compound ID>  (3) 
1413

>  <scratch_subdir>  (3) 
/opt/xchem-fragalysis-2/maxwin/BulkDock/SCRATCH/505520/C1413-P4

>  <fragmenstein_outcome>  (3) 
acceptable

>  <fragmenstein_error>  (3) 


>  <ref_pdb>  (3) 
1

>  <HIPPO Pose ID>  (3) 
241

>  <Energy>  (3) 
59.152314

$$$$
N[C@H](c1ccccc1)[C@H]1CCCC[C@]12CN[C@H](O)C[C@H]2O
     RDKit          3D

 21 23  0  0  0  0  0  0  0  0999 V2000
   15.2675    0.8302   15.2278 N   0  0  0  0  0  0  0  0  0  0  0  0
   15.3203   -0.5199   14.6929 C   0  0  2  0  0  0  0  0  0  0  0  0
   15.7139   -0.6288   13.2077 C   0  0  0  0  0  0  0  0  0  0  0  0
   15.9092   -1.8988   12.6268 C   0  0  0  0  0  0  0  0  0  0  0  0
   16.2257   -2.0516   11.2755 C   0  0  0  0  0  0  0  0  0  0  0  0
   16.3845   -0.9321   10.4715 C   0  0  0  0  0  0  0  0  0  0  0  0
   16.2613    0.3360   11.0303 C   0  0  0  0  0  0  0  0  0  0  0  0
   15.9560    0.4850   12.3887 C   0  0  0  0  0  0  0  0  0  0  0  0
   14.1184   -1.4153   15.1179 C   0  0  1  0  0  0  0  0  0  0  0  0
   14.2409   -1.8964   16.5763 C   0  0  0  0  0  0  0  0  0  0  0  0
   13.5882   -3.2697   16.7003 C   0  0  0  0  0  0  0  0  0  0  0  0
   12.1859   -3.2910   16.1155 C   0  0  0  0  0  0  0  0  0  0  0  0
   11.9704   -2.5689   14.7833 C   0  0  0  0  0  0  0  0  0  0  0  0
   12.6029   -1.1244   14.7369 C   0  0  2  0  0  0  0  0  0  0  0  0
   12.4725   -0.6055   13.3082 C   0  0  0  0  0  0  0  0  0  0  0  0
   12.7725    0.7986   13.0452 N   0  0  0  0  0  0  0  0  0  0  0  0
   12.1404    1.7464   13.9151 C   0  0  2  0  0  0  0  0  0  0  0  0
   13.1400    2.4384   14.6232 O   0  0  0  0  0  0  0  0  0  0  0  0
   11.1922    1.1138   14.8967 C   0  0  0  0  0  0  0  0  0  0  0  0
   11.7806   -0.1131   15.6170 C   0  0  1  0  0  0  0  0  0  0  0  0
   10.5909   -0.7191   16.1689 O   0  0  0  0  0  0  0  0  0  0  0  0
  2  1  1  6
  2  3  1  0
  3  4  2  0
  4  5  1  0
  5  6  2  0
  6  7  1  0
  7  8  2  0
  2  9  1  0
  9 10  1  1
 10 11  1  0
 11 12  1  0
 12 13  1  0
 14 13  1  6
 14 15  1  0
 15 16  1  0
 16 17  1  0
 17 18  1  1
 17 19  1  0
 19 20  1  0
 20 21  1  6
  8  3  1  0
 14  9  1  0
 20 14  1  0
M  END
>  <tags>  (4) 
{'openbind_d68ev3c_c1_fragmenstein', 'fragmenstein_placed'}

>  <fragmenstein_mode>  (4) 
expansion

>  <smiles>  (4) 
C1415-P97

>  <alias>  (4) 
N[C@H](c1ccccc1)[C@H]1CCCC[C@]12CN[C@H](O)C[C@H]2O

>  <fragmenstein_runtime>  (4) 
2.305292

>  <inchikey>  (4) 
SAQAVPRVQJBJCH-UHFFFAOYSA-N

>  <HIPPO Compound ID>  (4) 
1415

>  <scratch_subdir>  (4) 
/opt/xchem-fragalysis-2/maxwin/BulkDock/SCRATCH/505520/C1415-P97

>  <fragmenstein_outcome>  (4) 
acceptable

>  <fragmenstein_error>  (4) 


>  <ref_pdb>  (4) 
1

>  <HIPPO Pose ID>  (4) 
244

>  <Energy>  (4) 
27.241188

$$$$
N[C@H](c1ccccc1)c1ccccc1I
     RDKit          3D

 15 16  0  0  0  0  0  0  0  0999 V2000
   14.0278    0.9334   14.3967 N   0  0  0  0  0  0  0  0  0  0  0  0
   14.6761   -0.3782   14.2865 C   0  0  2  0  0  0  0  0  0  0  0  0
   15.1135   -0.7172   12.8593 C   0  0  0  0  0  0  0  0  0  0  0  0
   15.7112   -1.9631   12.5978 C   0  0  0  0  0  0  0  0  0  0  0  0
   16.2350   -2.2626   11.3392 C   0  0  0  0  0  0  0  0  0  0  0  0
   16.1876   -1.3176   10.3213 C   0  0  0  0  0  0  0  0  0  0  0  0
   15.5910   -0.0832   10.5513 C   0  0  0  0  0  0  0  0  0  0  0  0
   15.0511    0.2116   11.8059 C   0  0  0  0  0  0  0  0  0  0  0  0
   13.8276   -1.4468   14.9670 C   0  0  0  0  0  0  0  0  0  0  0  0
   12.6273   -1.8542   14.3555 C   0  0  0  0  0  0  0  0  0  0  0  0
   11.8321   -2.8562   14.9096 C   0  0  0  0  0  0  0  0  0  0  0  0
   12.2244   -3.4879   16.0804 C   0  0  0  0  0  0  0  0  0  0  0  0
   13.3832   -3.0843   16.7282 C   0  0  0  0  0  0  0  0  0  0  0  0
   14.1653   -2.0520   16.1942 C   0  0  0  0  0  0  0  0  0  0  0  0
   15.7088   -1.3956   17.4411 I   0  0  0  0  0  0  0  0  0  0  0  0
  2  1  1  6
  2  3  1  0
  3  4  2  0
  4  5  1  0
  5  6  2  0
  6  7  1  0
  7  8  2  0
  2  9  1  0
  9 10  2  0
 10 11  1  0
 11 12  2  0
 12 13  1  0
 13 14  2  0
 14 15  1  0
  8  3  1  0
 14  9  1  0
M  END
>  <tags>  (5) 
{'openbind_d68ev3c_c1_fragmenstein', 'fragmenstein_placed'}

>  <fragmenstein_mode>  (5) 
expansion

>  <smiles>  (5) 
C1418-P4

>  <alias>  (5) 
N[C@H](c1ccccc1)c1ccccc1I

>  <fragmenstein_runtime>  (5) 
1.082118

>  <inchikey>  (5) 
YACRXAUWVDSWQM-UHFFFAOYSA-N

>  <HIPPO Compound ID>  (5) 
1418

>  <scratch_subdir>  (5) 
/opt/xchem-fragalysis-2/maxwin/BulkDock/SCRATCH/505520/C1418-P4

>  <fragmenstein_outcome>  (5) 
acceptable

>  <fragmenstein_error>  (5) 


>  <ref_pdb>  (5) 
1

>  <HIPPO Pose ID>  (5) 
246

>  <Energy>  (5) 
39.913562

$$$$
Nc1ccccc1[C@@H](N)c1ccccc1
     RDKit          3D

 15 16  0  0  0  0  0  0  0  0999 V2000
   11.4686   -1.5679   14.2513 N   0  0  0  0  0  0  0  0  0  0  0  0
   12.5147   -2.1080   14.9830 C   0  0  0  0  0  0  0  0  0  0  0  0
   12.2044   -3.1307   15.8822 C   0  0  0  0  0  0  0  0  0  0  0  0
   13.1309   -3.5748   16.8168 C   0  0  0  0  0  0  0  0  0  0  0  0
   14.3958   -3.0071   16.8559 C   0  0  0  0  0  0  0  0  0  0  0  0
   14.7249   -1.9858   15.9643 C   0  0  0  0  0  0  0  0  0  0  0  0
   13.7824   -1.4896   15.0380 C   0  0  0  0  0  0  0  0  0  0  0  0
   14.1417   -0.3211   14.1141 C   0  0  1  0  0  0  0  0  0  0  0  0
   14.8955    0.7308   14.8218 N   0  0  0  0  0  0  0  0  0  0  0  0
   14.8523   -0.6843   12.8118 C   0  0  0  0  0  0  0  0  0  0  0  0
   15.3246   -1.9718   12.5205 C   0  0  0  0  0  0  0  0  0  0  0  0
   15.9959   -2.2397   11.3243 C   0  0  0  0  0  0  0  0  0  0  0  0
   16.2082   -1.2271   10.3952 C   0  0  0  0  0  0  0  0  0  0  0  0
   15.7394    0.0555   10.6554 C   0  0  0  0  0  0  0  0  0  0  0  0
   15.0659    0.3224   11.8499 C   0  0  0  0  0  0  0  0  0  0  0  0
  1  2  1  0
  2  3  2  0
  3  4  1  0
  4  5  2  0
  5  6  1  0
  6  7  2  0
  7  8  1  0
  8  9  1  1
  8 10  1  0
 10 11  2  0
 11 12  1  0
 12 13  2  0
 13 14  1  0
 14 15  2  0
  7  2  1  0
 15 10  1  0
M  END
>  <tags>  (6) 
{'openbind_d68ev3c_c1_fragmenstein', 'fragmenstein_placed'}

>  <fragmenstein_mode>  (6) 
expansion

>  <smiles>  (6) 
C1422-P4

>  <alias>  (6) 
Nc1ccccc1[C@@H](N)c1ccccc1

>  <fragmenstein_runtime>  (6) 
1.209812

>  <inchikey>  (6) 
SJCSSVLZFASSLN-UHFFFAOYSA-N

>  <HIPPO Compound ID>  (6) 
1422

>  <scratch_subdir>  (6) 
/opt/xchem-fragalysis-2/maxwin/BulkDock/SCRATCH/505520/C1422-P4

>  <fragmenstein_outcome>  (6) 
acceptable

>  <fragmenstein_error>  (6) 


>  <ref_pdb>  (6) 
1

>  <HIPPO Pose ID>  (6) 
249

>  <Energy>  (6) 
36.574737

$$$$
CC1=NN(c2cccc(O)c2)C(=O)C1
     RDKit          3D

 14 15  0  0  0  0  0  0  0  0999 V2000
   15.1774    3.3361   17.0481 C   0  0  0  0  0  0  0  0  0  0  0  0
   14.0328    2.4996   16.5962 C   0  0  0  0  0  0  0  0  0  0  0  0
   14.0438    1.2032   16.5785 N   0  0  0  0  0  0  0  0  0  0  0  0
   12.8196    0.8166   16.0718 N   0  0  0  0  0  0  0  0  0  0  0  0
   12.5324   -0.5641   15.9505 C   0  0  0  0  0  0  0  0  0  0  0  0
   11.3949   -0.9998   15.2606 C   0  0  0  0  0  0  0  0  0  0  0  0
   11.0740   -2.3532   15.1966 C   0  0  0  0  0  0  0  0  0  0  0  0
   11.8744   -3.2916   15.8263 C   0  0  0  0  0  0  0  0  0  0  0  0
   13.0254   -2.8805   16.4762 C   0  0  0  0  0  0  0  0  0  0  0  0
   13.8253   -3.8106   17.0694 O   0  0  0  0  0  0  0  0  0  0  0  0
   13.3666   -1.5313   16.5388 C   0  0  0  0  0  0  0  0  0  0  0  0
   11.9549    1.8905   15.7943 C   0  0  0  0  0  0  0  0  0  0  0  0
   10.7931    1.9068   15.4175 O   0  0  0  0  0  0  0  0  0  0  0  0
   12.7605    3.1120   16.1117 C   0  0  0  0  0  0  0  0  0  0  0  0
  1  2  1  0
  2  3  2  0
  3  4  1  0
  4  5  1  0
  5  6  2  0
  6  7  1  0
  7  8  2  0
  8  9  1  0
  9 10  1  0
  9 11  2  0
  4 12  1  0
 12 13  2  0
 12 14  1  0
 14  2  1  0
 11  5  1  0
M  END
>  <tags>  (7) 
{'openbind_d68ev3c_c1_fragmenstein', 'fragmenstein_placed'}

>  <fragmenstein_mode>  (7) 
expansion

>  <smiles>  (7) 
C1430-P5

>  <alias>  (7) 
CC1=NN(c2cccc(O)c2)C(=O)C1

>  <fragmenstein_runtime>  (7) 
0.665418

>  <inchikey>  (7) 
YIOLBBFTNHBTIE-UHFFFAOYSA-N

>  <HIPPO Compound ID>  (7) 
1430

>  <scratch_subdir>  (7) 
/opt/xchem-fragalysis-2/maxwin/BulkDock/SCRATCH/505520/C1430-P5

>  <fragmenstein_outcome>  (7) 
acceptable

>  <fragmenstein_error>  (7) 


>  <ref_pdb>  (7) 
1

>  <HIPPO Pose ID>  (7) 
252

>  <Energy>  (7) 
30.381388

$$$$
CC1=NN(c2cccc(N=[S@@](N)(=O)c3ccccc3OC(F)F)c2)C(=O)C1
     RDKit          3D

 27 29  0  0  0  0  0  0  0  0999 V2000
   14.9488    3.6124   16.9245 C   0  0  0  0  0  0  0  0  0  0  0  0
   13.9013    2.6455   16.4982 C   0  0  0  0  0  0  0  0  0  0  0  0
   14.0496    1.3591   16.5362 N   0  0  0  0  0  0  0  0  0  0  0  0
   12.8805    0.8175   16.0428 N   0  0  0  0  0  0  0  0  0  0  0  0
   12.7633   -0.5924   15.9919 C   0  0  0  0  0  0  0  0  0  0  0  0
   11.6921   -1.2181   15.3415 C   0  0  0  0  0  0  0  0  0  0  0  0
   11.5613   -2.6074   15.3684 C   0  0  0  0  0  0  0  0  0  0  0  0
   12.4941   -3.3804   16.0570 C   0  0  0  0  0  0  0  0  0  0  0  0
   13.5991   -2.7853   16.6551 C   0  0  0  0  0  0  0  0  0  0  0  0
   14.5216   -3.6513   17.3930 N   0  0  0  0  0  0  0  0  0  0  0  0
   16.0402   -3.5752   17.2179 S   0  0  1  0  0  0  0  0  0  0  0  0
   16.2945   -4.8132   16.1037 N   0  0  0  0  0  0  0  0  0  0  0  0
   16.8165   -2.4956   16.6589 O   0  0  0  0  0  0  0  0  0  0  0  0
   16.7586   -4.0136   18.7771 C   0  0  0  0  0  0  0  0  0  0  0  0
   16.1982   -3.4360   19.9273 C   0  0  0  0  0  0  0  0  0  0  0  0
   16.7062   -3.7477   21.1876 C   0  0  0  0  0  0  0  0  0  0  0  0
   17.7805   -4.6259   21.3032 C   0  0  0  0  0  0  0  0  0  0  0  0
   18.3405   -5.2015   20.1607 C   0  0  0  0  0  0  0  0  0  0  0  0
   17.8179   -4.9178   18.8919 C   0  0  0  0  0  0  0  0  0  0  0  0
   18.4079   -5.4531   17.7810 O   0  0  0  0  0  0  0  0  0  0  0  0
   18.3400   -6.8777   17.7729 C   0  0  0  0  0  0  0  0  0  0  0  0
   18.4776   -7.2717   16.4812 F   0  0  0  0  0  0  0  0  0  0  0  0
   19.4145   -7.3656   18.4416 F   0  0  0  0  0  0  0  0  0  0  0  0
   13.7263   -1.3973   16.6302 C   0  0  0  0  0  0  0  0  0  0  0  0
   11.9074    1.7764   15.7165 C   0  0  0  0  0  0  0  0  0  0  0  0
   10.7522    1.6460   15.3432 O   0  0  0  0  0  0  0  0  0  0  0  0
   12.5751    3.0938   15.9794 C   0  0  0  0  0  0  0  0  0  0  0  0
  1  2  1  0
  2  3  2  0
  3  4  1  0
  4  5  1  0
  5  6  2  0
  6  7  1  0
  7  8  2  0
  8  9  1  0
  9 10  1  0
 10 11  2  0
 11 12  1  6
 11 13  2  0
 11 14  1  0
 14 15  2  0
 15 16  1  0
 16 17  2  0
 17 18  1  0
 18 19  2  0
 19 20  1  0
 20 21  1  0
 21 22  1  0
 21 23  1  0
  9 24  2  0
  4 25  1  0
 25 26  2  0
 25 27  1  0
 27  2  1  0
 24  5  1  0
 19 14  1  0
M  END
>  <tags>  (8) 
{'openbind_d68ev3c_c1_fragmenstein', 'fragmenstein_placed'}

>  <fragmenstein_mode>  (8) 
expansion

>  <smiles>  (8) 
C641-P5

>  <alias>  (8) 
CC1=NN(c2cccc(N=[S@@](N)(=O)c3ccccc3OC(F)F)c2)C(=O)C1

>  <fragmenstein_runtime>  (8) 
1.724428

>  <inchikey>  (8) 
DPNQQQYQPPIZRC-UHFFFAOYSA-N

>  <HIPPO Compound ID>  (8) 
641

>  <scratch_subdir>  (8) 
/opt/xchem-fragalysis-2/maxwin/BulkDock/SCRATCH/505520/C641-P5

>  <fragmenstein_outcome>  (8) 
acceptable

>  <fragmenstein_error>  (8) 


>  <ref_pdb>  (8) 
1

>  <HIPPO Pose ID>  (8) 
256

>  <Energy>  (8) 
-50.086405

$$$$
CC1=NN(c2c(C)cccc2C(=O)O)C(=O)C1
     RDKit          3D

 17 18  0  0  0  0  0  0  0  0999 V2000
   15.0070    3.8089   16.4827 C   0  0  0  0  0  0  0  0  0  0  0  0
   13.9113    2.8224   16.2883 C   0  0  0  0  0  0  0  0  0  0  0  0
   14.0938    1.5414   16.2886 N   0  0  0  0  0  0  0  0  0  0  0  0
   12.8558    0.9631   16.1159 N   0  0  0  0  0  0  0  0  0  0  0  0
   12.7563   -0.4594   16.1419 C   0  0  0  0  0  0  0  0  0  0  0  0
   13.6570   -1.2422   16.9161 C   0  0  0  0  0  0  0  0  0  0  0  0
   14.7174   -0.6413   17.8005 C   0  0  0  0  0  0  0  0  0  0  0  0
   13.5466   -2.6502   16.9415 C   0  0  0  0  0  0  0  0  0  0  0  0
   12.5508   -3.3063   16.2364 C   0  0  0  0  0  0  0  0  0  0  0  0
   11.6639   -2.5615   15.4785 C   0  0  0  0  0  0  0  0  0  0  0  0
   11.7535   -1.1531   15.4434 C   0  0  0  0  0  0  0  0  0  0  0  0
   10.8180   -0.4970   14.5218 C   0  0  0  0  0  0  0  0  0  0  0  0
   11.0924    0.2466   13.5978 O   0  0  0  0  0  0  0  0  0  0  0  0
    9.5672   -0.9273   14.7992 O   0  0  0  0  0  0  0  0  0  0  0  0
   11.8113    1.9045   16.0298 C   0  0  0  0  0  0  0  0  0  0  0  0
   10.5999    1.7516   15.9930 O   0  0  0  0  0  0  0  0  0  0  0  0
   12.4947    3.2378   16.0842 C   0  0  0  0  0  0  0  0  0  0  0  0
  1  2  1  0
  2  3  2  0
  3  4  1  0
  4  5  1  0
  5  6  2  0
  6  7  1  0
  6  8  1  0
  8  9  2  0
  9 10  1  0
 10 11  2  0
 11 12  1  0
 12 13  2  0
 12 14  1  0
  4 15  1  0
 15 16  2  0
 15 17  1  0
 17  2  1  0
 11  5  1  0
M  END
>  <tags>  (9) 
{'openbind_d68ev3c_c1_fragmenstein', 'fragmenstein_placed'}

>  <fragmenstein_mode>  (9) 
expansion

>  <smiles>  (9) 
C1442-P5

>  <alias>  (9) 
CC1=NN(c2c(C)cccc2C(=O)O)C(=O)C1

>  <fragmenstein_runtime>  (9) 
1.651932

>  <inchikey>  (9) 
PCBUMFIPUOURIZ-UHFFFAOYSA-N

>  <HIPPO Compound ID>  (9) 
1442

>  <scratch_subdir>  (9) 
/opt/xchem-fragalysis-2/maxwin/BulkDock/SCRATCH/505520/C1442-P5

>  <fragmenstein_outcome>  (9) 
acceptable

>  <fragmenstein_error>  (9) 


>  <ref_pdb>  (9) 
1

>  <HIPPO Pose ID>  (9) 
257

>  <Energy>  (9) 
57.814734

$$$$
CC1=NN(c2cccc(Cl)c2)C(=O)C1
     RDKit          3D

 14 15  0  0  0  0  0  0  0  0999 V2000
   15.0657    3.4345   17.0394 C   0  0  0  0  0  0  0  0  0  0  0  0
   13.9648    2.5493   16.5716 C   0  0  0  0  0  0  0  0  0  0  0  0
   14.0185    1.2542   16.5923 N   0  0  0  0  0  0  0  0  0  0  0  0
   12.8277    0.8112   16.0531 N   0  0  0  0  0  0  0  0  0  0  0  0
   12.5930   -0.5818   15.9754 C   0  0  0  0  0  0  0  0  0  0  0  0
   11.5163   -1.0967   15.2435 C   0  0  0  0  0  0  0  0  0  0  0  0
   11.2539   -2.4664   15.2290 C   0  0  0  0  0  0  0  0  0  0  0  0
   12.0434   -3.3361   15.9692 C   0  0  0  0  0  0  0  0  0  0  0  0
   13.1303   -2.8442   16.6770 C   0  0  0  0  0  0  0  0  0  0  0  0
   14.0720   -3.9379   17.6083 Cl  0  0  0  0  0  0  0  0  0  0  0  0
   13.4238   -1.4806   16.6655 C   0  0  0  0  0  0  0  0  0  0  0  0
   11.9372    1.8450   15.7169 C   0  0  0  0  0  0  0  0  0  0  0  0
   10.7875    1.8074   15.3071 O   0  0  0  0  0  0  0  0  0  0  0  0
   12.6904    3.1033   16.0248 C   0  0  0  0  0  0  0  0  0  0  0  0
  1  2  1  0
  2  3  2  0
  3  4  1  0
  4  5  1  0
  5  6  2  0
  6  7  1  0
  7  8  2  0
  8  9  1  0
  9 10  1  0
  9 11  2  0
  4 12  1  0
 12 13  2  0
 12 14  1  0
 14  2  1  0
 11  5  1  0
M  END
>  <tags>  (10) 
{'openbind_d68ev3c_c1_fragmenstein', 'fragmenstein_placed'}

>  <fragmenstein_mode>  (10) 
expansion

>  <smiles>  (10) 
C1445-P5

>  <alias>  (10) 
CC1=NN(c2cccc(Cl)c2)C(=O)C1

>  <fragmenstein_runtime>  (10) 
0.826255

>  <inchikey>  (10) 
RIOMUJXIGYZENC-UHFFFAOYSA-N

>  <HIPPO Compound ID>  (10) 
1445

>  <scratch_subdir>  (10) 
/opt/xchem-fragalysis-2/maxwin/BulkDock/SCRATCH/505520/C1445-P5

>  <fragmenstein_outcome>  (10) 
acceptable

>  <fragmenstein_error>  (10) 


>  <ref_pdb>  (10) 
1

>  <HIPPO Pose ID>  (10) 
258

>  <Energy>  (10) 
35.095135

$$$$
CC1=C(CO)CC(=O)N1c1ccccc1
     RDKit          3D

 15 16  0  0  0  0  0  0  0  0999 V2000
   15.6438   -0.2914   15.4167 C   0  0  0  0  0  0  0  0  0  0  0  0
   14.5812    0.7367   15.6831 C   0  0  0  0  0  0  0  0  0  0  0  0
   14.7190    2.0705   15.6525 C   0  0  0  0  0  0  0  0  0  0  0  0
   15.9602    2.8834   15.4977 C   0  0  0  0  0  0  0  0  0  0  0  0
   17.1224    2.0576   15.4953 O   0  0  0  0  0  0  0  0  0  0  0  0
   13.3697    2.7411   15.7435 C   0  0  0  0  0  0  0  0  0  0  0  0
   12.4298    1.5410   15.7750 C   0  0  0  0  0  0  0  0  0  0  0  0
   11.2072    1.6188   15.7951 O   0  0  0  0  0  0  0  0  0  0  0  0
   13.2472    0.3978   15.8190 N   0  0  0  0  0  0  0  0  0  0  0  0
   12.7473   -0.9148   15.9574 C   0  0  0  0  0  0  0  0  0  0  0  0
   13.4224   -1.8279   16.7859 C   0  0  0  0  0  0  0  0  0  0  0  0
   13.0256   -3.1559   16.8581 C   0  0  0  0  0  0  0  0  0  0  0  0
   11.9465   -3.5781   16.0986 C   0  0  0  0  0  0  0  0  0  0  0  0
   11.2531   -2.6771   15.2913 C   0  0  0  0  0  0  0  0  0  0  0  0
   11.6321   -1.3388   15.2388 C   0  0  0  0  0  0  0  0  0  0  0  0
  1  2  1  0
  2  3  2  0
  3  4  1  0
  4  5  1  0
  3  6  1  0
  6  7  1  0
  7  8  2  0
  7  9  1  0
  9 10  1  0
 10 11  2  0
 11 12  1  0
 12 13  2  0
 13 14  1  0
 14 15  2  0
  9  2  1  0
 15 10  1  0
M  END
>  <tags>  (11) 
{'openbind_d68ev3c_c1_fragmenstein', 'fragmenstein_placed'}

>  <fragmenstein_mode>  (11) 
expansion

>  <smiles>  (11) 
C1449-P5

>  <alias>  (11) 
CC1=C(CO)CC(=O)N1c1ccccc1

>  <fragmenstein_runtime>  (11) 
3.201161

>  <inchikey>  (11) 
AFSNCTCRJMBOIU-UHFFFAOYSA-N

>  <HIPPO Compound ID>  (11) 
1449

>  <scratch_subdir>  (11) 
/opt/xchem-fragalysis-2/maxwin/BulkDock/SCRATCH/505520/C1449-P5

>  <fragmenstein_outcome>  (11) 
acceptable

>  <fragmenstein_error>  (11) 


>  <ref_pdb>  (11) 
1

>  <HIPPO Pose ID>  (11) 
261

>  <Energy>  (11) 
42.268883

$$$$
CC1=NN(c2ccccc2I)C(=O)C1
     RDKit          3D

 14 15  0  0  0  0  0  0  0  0999 V2000
   15.4374    3.6508   17.1427 C   0  0  0  0  0  0  0  0  0  0  0  0
   14.2950    2.7504   16.8398 C   0  0  0  0  0  0  0  0  0  0  0  0
   14.3872    1.4577   16.7968 N   0  0  0  0  0  0  0  0  0  0  0  0
   13.1399    1.0086   16.4336 N   0  0  0  0  0  0  0  0  0  0  0  0
   12.9514   -0.3784   16.2329 C   0  0  0  0  0  0  0  0  0  0  0  0
   13.6201   -1.2880   17.0644 C   0  0  0  0  0  0  0  0  0  0  0  0
   13.3429   -2.6572   16.9982 C   0  0  0  0  0  0  0  0  0  0  0  0
   12.4150   -3.1378   16.0791 C   0  0  0  0  0  0  0  0  0  0  0  0
   11.8236   -2.2624   15.1711 C   0  0  0  0  0  0  0  0  0  0  0  0
   12.1165   -0.8937   15.2326 C   0  0  0  0  0  0  0  0  0  0  0  0
   11.5923    0.2789   13.5901 I   0  0  0  0  0  0  0  0  0  0  0  0
   12.1634    2.0232   16.3493 C   0  0  0  0  0  0  0  0  0  0  0  0
   10.9517    1.9565   16.2000 O   0  0  0  0  0  0  0  0  0  0  0  0
   12.9330    3.2895   16.5449 C   0  0  0  0  0  0  0  0  0  0  0  0
  1  2  1  0
  2  3  2  0
  3  4  1  0
  4  5  1  0
  5  6  2  0
  6  7  1  0
  7  8  2  0
  8  9  1  0
  9 10  2  0
 10 11  1  0
  4 12  1  0
 12 13  2  0
 12 14  1  0
 14  2  1  0
 10  5  1  0
M  END
>  <tags>  (12) 
{'openbind_d68ev3c_c1_fragmenstein', 'fragmenstein_placed'}

>  <fragmenstein_mode>  (12) 
expansion

>  <smiles>  (12) 
C1452-P5

>  <alias>  (12) 
CC1=NN(c2ccccc2I)C(=O)C1

>  <fragmenstein_runtime>  (12) 
0.846219

>  <inchikey>  (12) 
CSLDQGHMIXWCBB-UHFFFAOYSA-N

>  <HIPPO Compound ID>  (12) 
1452

>  <scratch_subdir>  (12) 
/opt/xchem-fragalysis-2/maxwin/BulkDock/SCRATCH/505520/C1452-P5

>  <fragmenstein_outcome>  (12) 
acceptable

>  <fragmenstein_error>  (12) 


>  <ref_pdb>  (12) 
1

>  <HIPPO Pose ID>  (12) 
262

>  <Energy>  (12) 
62.916355

$$$$
CC1=NN(c2ccccc2N)C(=O)C1
     RDKit          3D

 14 15  0  0  0  0  0  0  0  0999 V2000
   14.8192    3.7898   16.6891 C   0  0  0  0  0  0  0  0  0  0  0  0
   13.7602    2.8072   16.3332 C   0  0  0  0  0  0  0  0  0  0  0  0
   13.9370    1.5250   16.3611 N   0  0  0  0  0  0  0  0  0  0  0  0
   12.7340    0.9552   15.9765 N   0  0  0  0  0  0  0  0  0  0  0  0
   12.6003   -0.4624   15.9681 C   0  0  0  0  0  0  0  0  0  0  0  0
   11.5702   -1.0747   15.2388 C   0  0  0  0  0  0  0  0  0  0  0  0
   11.4062   -2.4617   15.2547 C   0  0  0  0  0  0  0  0  0  0  0  0
   12.2445   -3.2562   16.0262 C   0  0  0  0  0  0  0  0  0  0  0  0
   13.2802   -2.6718   16.7467 C   0  0  0  0  0  0  0  0  0  0  0  0
   13.4947   -1.2876   16.6960 C   0  0  0  0  0  0  0  0  0  0  0  0
   14.4355   -0.7349   17.5952 N   0  0  0  0  0  0  0  0  0  0  0  0
   11.7315    1.8975   15.6971 C   0  0  0  0  0  0  0  0  0  0  0  0
   10.5578    1.7508   15.3933 O   0  0  0  0  0  0  0  0  0  0  0  0
   12.3938    3.2275   15.9077 C   0  0  0  0  0  0  0  0  0  0  0  0
  1  2  1  0
  2  3  2  0
  3  4  1  0
  4  5  1  0
  5  6  2  0
  6  7  1  0
  7  8  2  0
  8  9  1  0
  9 10  2  0
 10 11  1  0
  4 12  1  0
 12 13  2  0
 12 14  1  0
 14  2  1  0
 10  5  1  0
M  END
>  <tags>  (13) 
{'openbind_d68ev3c_c1_fragmenstein', 'fragmenstein_placed'}

>  <fragmenstein_mode>  (13) 
expansion

>  <smiles>  (13) 
C1454-P5

>  <alias>  (13) 
CC1=NN(c2ccccc2N)C(=O)C1

>  <fragmenstein_runtime>  (13) 
0.621467

>  <inchikey>  (13) 
BLTNZUIEECRNOY-UHFFFAOYSA-N

>  <HIPPO Compound ID>  (13) 
1454

>  <scratch_subdir>  (13) 
/opt/xchem-fragalysis-2/maxwin/BulkDock/SCRATCH/505520/C1454-P5

>  <fragmenstein_outcome>  (13) 
acceptable

>  <fragmenstein_error>  (13) 


>  <ref_pdb>  (13) 
1

>  <HIPPO Pose ID>  (13) 
264

>  <Energy>  (13) 
55.132649

$$$$
CC1=NN(c2cccc(C)c2NC(=O)CS(=O)(=O)c2ccccc2)C(=O)C1
     RDKit          3D

 27 29  0  0  0  0  0  0  0  0999 V2000
   15.2590    3.4597   16.2841 C   0  0  0  0  0  0  0  0  0  0  0  0
   14.0633    2.5997   16.0741 C   0  0  0  0  0  0  0  0  0  0  0  0
   14.1174    1.3175   15.8808 N   0  0  0  0  0  0  0  0  0  0  0  0
   12.8065    0.8891   15.8219 N   0  0  0  0  0  0  0  0  0  0  0  0
   12.5072   -0.4961   15.7996 C   0  0  0  0  0  0  0  0  0  0  0  0
   11.3309   -0.9020   15.1543 C   0  0  0  0  0  0  0  0  0  0  0  0
   10.9692   -2.2407   15.0932 C   0  0  0  0  0  0  0  0  0  0  0  0
   11.7838   -3.2083   15.6462 C   0  0  0  0  0  0  0  0  0  0  0  0
   12.9797   -2.8560   16.2694 C   0  0  0  0  0  0  0  0  0  0  0  0
   13.7808   -3.9463   16.9158 C   0  0  0  0  0  0  0  0  0  0  0  0
   13.3298   -1.4940   16.3739 C   0  0  0  0  0  0  0  0  0  0  0  0
   14.4297   -1.2249   17.1884 N   0  0  0  0  0  0  0  0  0  0  0  0
   14.6671   -0.0830   18.2235 C   0  0  0  0  0  0  0  0  0  0  0  0
   13.9480    0.7552   18.6030 O   0  0  0  0  0  0  0  0  0  0  0  0
   16.0798   -0.2693   18.6828 C   0  0  0  0  0  0  0  0  0  0  0  0
   16.5286    0.9143   19.8980 S   0  0  0  0  0  0  0  0  0  0  0  0
   16.3437    2.2460   19.3506 O   0  0  0  0  0  0  0  0  0  0  0  0
   17.8394    0.5181   20.3863 O   0  0  0  0  0  0  0  0  0  0  0  0
   15.4105    0.6852   21.2546 C   0  0  0  0  0  0  0  0  0  0  0  0
   15.4577   -0.5081   21.9815 C   0  0  0  0  0  0  0  0  0  0  0  0
   14.6202   -0.6644   23.0846 C   0  0  0  0  0  0  0  0  0  0  0  0
   13.7464    0.3614   23.4524 C   0  0  0  0  0  0  0  0  0  0  0  0
   13.7023    1.5475   22.7193 C   0  0  0  0  0  0  0  0  0  0  0  0
   14.5395    1.7157   21.6182 C   0  0  0  0  0  0  0  0  0  0  0  0
   11.8619    1.9289   15.8900 C   0  0  0  0  0  0  0  0  0  0  0  0
   10.6401    1.8962   15.8614 O   0  0  0  0  0  0  0  0  0  0  0  0
   12.6823    3.1676   16.0712 C   0  0  0  0  0  0  0  0  0  0  0  0
  1  2  1  0
  2  3  2  0
  3  4  1  0
  4  5  1  0
  5  6  2  0
  6  7  1  0
  7  8  2  0
  8  9  1  0
  9 10  1  0
  9 11  2  0
 11 12  1  0
 12 13  1  0
 13 14  2  0
 13 15  1  0
 15 16  1  0
 16 17  2  0
 16 18  2  0
 16 19  1  0
 19 20  2  0
 20 21  1  0
 21 22  2  0
 22 23  1  0
 23 24  2  0
  4 25  1  0
 25 26  2  0
 25 27  1  0
 27  2  1  0
 11  5  1  0
 24 19  1  0
M  END
>  <tags>  (14) 
{'openbind_d68ev3c_c1_fragmenstein', 'fragmenstein_placed'}

>  <fragmenstein_mode>  (14) 
expansion

>  <smiles>  (14) 
C1458-P5

>  <alias>  (14) 
CC1=NN(c2cccc(C)c2NC(=O)CS(=O)(=O)c2ccccc2)C(=O)C1

>  <fragmenstein_runtime>  (14) 
4.61068

>  <inchikey>  (14) 
RBRQTHJQCMIPIZ-UHFFFAOYSA-N

>  <HIPPO Compound ID>  (14) 
1458

>  <scratch_subdir>  (14) 
/opt/xchem-fragalysis-2/maxwin/BulkDock/SCRATCH/505520/C1458-P5

>  <fragmenstein_outcome>  (14) 
acceptable

>  <fragmenstein_error>  (14) 


>  <ref_pdb>  (14) 
1

>  <HIPPO Pose ID>  (14) 
265

>  <Energy>  (14) 
91.951027

$$$$
CC[S@](=O)(=NCO)[C@@H]1CCCC[C@@]1(c1ccccc1)C(F)F
     RDKit          3D

 22 23  0  0  0  0  0  0  0  0999 V2000
   16.7173   -5.9813   19.3110 C   0  0  0  0  0  0  0  0  0  0  0  0
   16.4326   -4.6428   18.6492 C   0  0  0  0  0  0  0  0  0  0  0  0
   15.5625   -3.5211   19.7375 S   0  0  2  0  0  0  0  0  0  0  0  0
   16.3768   -3.4878   20.9435 O   0  0  0  0  0  0  0  0  0  0  0  0
   14.0965   -3.9595   19.7698 N   0  0  0  0  0  0  0  0  0  0  0  0
   13.6201   -4.6298   20.9544 C   0  0  0  0  0  0  0  0  0  0  0  0
   12.4786   -5.3749   20.6301 O   0  0  0  0  0  0  0  0  0  0  0  0
   15.6393   -1.8436   19.0887 C   0  0  2  0  0  0  0  0  0  0  0  0
   15.0958   -0.8882   20.1812 C   0  0  0  0  0  0  0  0  0  0  0  0
   15.7311    0.4967   20.1032 C   0  0  0  0  0  0  0  0  0  0  0  0
   16.1965    0.8356   18.6958 C   0  0  0  0  0  0  0  0  0  0  0  0
   15.2571    0.2264   17.6614 C   0  0  0  0  0  0  0  0  0  0  0  0
   15.1897   -1.3719   17.6344 C   0  0  2  0  0  0  0  0  0  0  0  0
   13.8490   -1.7714   16.9300 C   0  0  0  0  0  0  0  0  0  0  0  0
   13.3379   -3.0716   16.9209 C   0  0  0  0  0  0  0  0  0  0  0  0
   12.2103   -3.4237   16.1643 C   0  0  0  0  0  0  0  0  0  0  0  0
   11.5855   -2.5037   15.3360 C   0  0  0  0  0  0  0  0  0  0  0  0
   12.0823   -1.2172   15.2766 C   0  0  0  0  0  0  0  0  0  0  0  0
   13.1897   -0.8643   16.0561 C   0  0  0  0  0  0  0  0  0  0  0  0
   16.2738   -1.8158   16.6300 C   0  0  0  0  0  0  0  0  0  0  0  0
   16.3910   -3.1579   16.5926 F   0  0  0  0  0  0  0  0  0  0  0  0
   15.9381   -1.4328   15.3731 F   0  0  0  0  0  0  0  0  0  0  0  0
  1  2  1  0
  3  2  1  6
  3  4  2  0
  3  5  2  0
  5  6  1  0
  6  7  1  0
  3  8  1  0
  8  9  1  1
  9 10  1  0
 10 11  1  0
 11 12  1  0
 12 13  1  0
 13 14  1  0
 14 15  2  0
 15 16  1  0
 16 17  2  0
 17 18  1  0
 18 19  2  0
 13 20  1  6
 20 21  1  0
 20 22  1  0
 13  8  1  0
 19 14  1  0
M  END
>  <tags>  (15) 
{'openbind_d68ev3c_c1_fragmenstein', 'fragmenstein_placed'}

>  <fragmenstein_mode>  (15) 
expansion

>  <smiles>  (15) 
C1550-P10

>  <alias>  (15) 
CC[S@](=O)(=NCO)[C@@H]1CCCC[C@@]1(c1ccccc1)C(F)F

>  <fragmenstein_runtime>  (15) 
15.539588

>  <inchikey>  (15) 
YPEANAMPJRKIQM-UHFFFAOYSA-N

>  <HIPPO Compound ID>  (15) 
1550

>  <scratch_subdir>  (15) 
/opt/xchem-fragalysis-2/maxwin/BulkDock/SCRATCH/505520/C1550-P10

>  <fragmenstein_outcome>  (15) 
acceptable

>  <fragmenstein_error>  (15) 


>  <ref_pdb>  (15) 
1

>  <HIPPO Pose ID>  (15) 
310

>  <Energy>  (15) 
-7.364445

$$$$
CCS(=O)(=O)Nc1cccc(C)c1N=O
     RDKit          3D

 15 15  0  0  0  0  0  0  0  0999 V2000
   17.6962   -2.3022   16.6065 C   0  0  0  0  0  0  0  0  0  0  0  0
   16.8381   -3.5212   16.3407 C   0  0  0  0  0  0  0  0  0  0  0  0
   15.7629   -3.9430   17.7094 S   0  0  0  0  0  0  0  0  0  0  0  0
   16.5590   -3.9362   18.9178 O   0  0  0  0  0  0  0  0  0  0  0  0
   15.0035   -5.1182   17.3430 O   0  0  0  0  0  0  0  0  0  0  0  0
   14.7385   -2.6167   17.8177 N   0  0  0  0  0  0  0  0  0  0  0  0
   13.7708   -2.3422   16.7877 C   0  0  0  0  0  0  0  0  0  0  0  0
   12.8013   -3.3043   16.4952 C   0  0  0  0  0  0  0  0  0  0  0  0
   11.8265   -3.0521   15.5362 C   0  0  0  0  0  0  0  0  0  0  0  0
   11.8191   -1.8456   14.8503 C   0  0  0  0  0  0  0  0  0  0  0  0
   12.7698   -0.8567   15.1174 C   0  0  0  0  0  0  0  0  0  0  0  0
   12.6888    0.4372   14.3499 C   0  0  0  0  0  0  0  0  0  0  0  0
   13.7299   -1.0873   16.1271 C   0  0  0  0  0  0  0  0  0  0  0  0
   14.6278   -0.0970   16.4809 N   0  0  0  0  0  0  0  0  0  0  0  0
   14.0589    0.8774   16.9923 O   0  0  0  0  0  0  0  0  0  0  0  0
  1  2  1  0
  2  3  1  0
  3  4  2  0
  3  5  2  0
  3  6  1  0
  6  7  1  0
  7  8  2  0
  8  9  1  0
  9 10  2  0
 10 11  1  0
 11 12  1  0
 11 13  2  0
 13 14  1  0
 14 15  2  0
 13  7  1  0
M  END
>  <tags>  (16) 
{'openbind_d68ev3c_c1_fragmenstein', 'fragmenstein_placed'}

>  <fragmenstein_mode>  (16) 
expansion

>  <smiles>  (16) 
C1552-P10

>  <alias>  (16) 
CCS(=O)(=O)Nc1cccc(C)c1N=O

>  <fragmenstein_runtime>  (16) 
1.231602

>  <inchikey>  (16) 
OXBOUCQJOFCRFX-UHFFFAOYSA-N

>  <HIPPO Compound ID>  (16) 
1552

>  <scratch_subdir>  (16) 
/opt/xchem-fragalysis-2/maxwin/BulkDock/SCRATCH/505520/C1552-P10

>  <fragmenstein_outcome>  (16) 
acceptable

>  <fragmenstein_error>  (16) 


>  <ref_pdb>  (16) 
1

>  <HIPPO Pose ID>  (16) 
311

>  <Energy>  (16) 
-7.544959

$$$$
CCS(=O)(=O)N[C@@H]1CCCC[C@]12CN[C@@H](CO)NO2
     RDKit          3D

 19 20  0  0  0  0  0  0  0  0999 V2000
   18.0560   -2.6558   16.7236 C   0  0  0  0  0  0  0  0  0  0  0  0
   17.0599   -3.7701   16.4625 C   0  0  0  0  0  0  0  0  0  0  0  0
   15.8146   -3.8936   17.7373 S   0  0  0  0  0  0  0  0  0  0  0  0
   16.4979   -3.8850   19.0128 O   0  0  0  0  0  0  0  0  0  0  0  0
   14.9146   -4.9709   17.3993 O   0  0  0  0  0  0  0  0  0  0  0  0
   15.0461   -2.4143   17.6442 N   0  0  0  0  0  0  0  0  0  0  0  0
   13.8480   -2.0232   16.8574 C   0  0  2  0  0  0  0  0  0  0  0  0
   13.0602   -3.1806   16.2667 C   0  0  0  0  0  0  0  0  0  0  0  0
   11.8301   -2.7599   15.4701 C   0  0  0  0  0  0  0  0  0  0  0  0
   12.0920   -1.6144   14.5159 C   0  0  0  0  0  0  0  0  0  0  0  0
   12.7421   -0.4467   15.2356 C   0  0  0  0  0  0  0  0  0  0  0  0
   14.0922   -0.8303   15.8895 C   0  0  2  0  0  0  0  0  0  0  0  0
   15.1783   -1.1128   14.8458 C   0  0  0  0  0  0  0  0  0  0  0  0
   15.5289    0.0698   14.0551 N   0  0  0  0  0  0  0  0  0  0  0  0
   15.8767    1.1967   14.9217 C   0  0  1  0  0  0  0  0  0  0  0  0
   16.1347    2.4270   14.0119 C   0  0  0  0  0  0  0  0  0  0  0  0
   15.0393    2.6748   13.1188 O   0  0  0  0  0  0  0  0  0  0  0  0
   14.7617    1.4553   15.8345 N   0  0  0  0  0  0  0  0  0  0  0  0
   14.5903    0.2795   16.6910 O   0  0  0  0  0  0  0  0  0  0  0  0
  1  2  1  0
  2  3  1  0
  3  4  2  0
  3  5  2  0
  3  6  1  0
  7  6  1  6
  7  8  1  0
  8  9  1  0
  9 10  1  0
 10 11  1  0
 12 11  1  6
 12 13  1  0
 13 14  1  0
 14 15  1  0
 15 16  1  6
 16 17  1  0
 15 18  1  0
 18 19  1  0
 12  7  1  0
 19 12  1  0
M  END
>  <tags>  (17) 
{'openbind_d68ev3c_c1_fragmenstein', 'fragmenstein_placed'}

>  <fragmenstein_mode>  (17) 
expansion

>  <smiles>  (17) 
C1560-P10

>  <alias>  (17) 
CCS(=O)(=O)N[C@@H]1CCCC[C@]12CN[C@@H](CO)NO2

>  <fragmenstein_runtime>  (17) 
4.166568

>  <inchikey>  (17) 
BVXKUVCDXHJECV-UHFFFAOYSA-N

>  <HIPPO Compound ID>  (17) 
1560

>  <scratch_subdir>  (17) 
/opt/xchem-fragalysis-2/maxwin/BulkDock/SCRATCH/505520/C1560-P10

>  <fragmenstein_outcome>  (17) 
acceptable

>  <fragmenstein_error>  (17) 


>  <ref_pdb>  (17) 
1

>  <HIPPO Pose ID>  (17) 
315

>  <Energy>  (17) 
10.625979

$$$$
CCS(=O)(=O)Nc1c(F)ccc(OCC(=O)O)c1F
     RDKit          3D

 19 19  0  0  0  0  0  0  0  0999 V2000
   17.7786   -2.2186   16.6271 C   0  0  0  0  0  0  0  0  0  0  0  0
   16.9764   -3.4687   16.3335 C   0  0  0  0  0  0  0  0  0  0  0  0
   15.8518   -3.9195   17.6507 S   0  0  0  0  0  0  0  0  0  0  0  0
   16.6071   -3.9390   18.8849 O   0  0  0  0  0  0  0  0  0  0  0  0
   15.1174   -5.0854   17.2181 O   0  0  0  0  0  0  0  0  0  0  0  0
   14.8327   -2.5843   17.7494 N   0  0  0  0  0  0  0  0  0  0  0  0
   13.8921   -2.3222   16.6972 C   0  0  0  0  0  0  0  0  0  0  0  0
   12.8369   -3.1847   16.4167 C   0  0  0  0  0  0  0  0  0  0  0  0
   12.6634   -4.2878   17.1437 F   0  0  0  0  0  0  0  0  0  0  0  0
   11.9120   -2.8938   15.4217 C   0  0  0  0  0  0  0  0  0  0  0  0
   12.0536   -1.7266   14.6775 C   0  0  0  0  0  0  0  0  0  0  0  0
   13.1060   -0.8433   14.9256 C   0  0  0  0  0  0  0  0  0  0  0  0
   13.1102    0.2507   14.1068 O   0  0  0  0  0  0  0  0  0  0  0  0
   14.2055    1.1510   14.1682 C   0  0  0  0  0  0  0  0  0  0  0  0
   14.1965    2.1915   15.2810 C   0  0  0  0  0  0  0  0  0  0  0  0
   15.0797    3.0106   15.4887 O   0  0  0  0  0  0  0  0  0  0  0  0
   13.0948    2.1843   16.0582 O   0  0  0  0  0  0  0  0  0  0  0  0
   14.0063   -1.1455   15.9513 C   0  0  0  0  0  0  0  0  0  0  0  0
   14.9997   -0.3007   16.2650 F   0  0  0  0  0  0  0  0  0  0  0  0
  1  2  1  0
  2  3  1  0
  3  4  2  0
  3  5  2  0
  3  6  1  0
  6  7  1  0
  7  8  2  0
  8  9  1  0
  8 10  1  0
 10 11  2  0
 11 12  1  0
 12 13  1  0
 13 14  1  0
 14 15  1  0
 15 16  2  0
 15 17  1  0
 12 18  2  0
 18 19  1  0
 18  7  1  0
M  END
>  <tags>  (18) 
{'openbind_d68ev3c_c1_fragmenstein', 'fragmenstein_placed'}

>  <fragmenstein_mode>  (18) 
expansion

>  <smiles>  (18) 
C1565-P10

>  <alias>  (18) 
CCS(=O)(=O)Nc1c(F)ccc(OCC(=O)O)c1F

>  <fragmenstein_runtime>  (18) 
1.394478

>  <inchikey>  (18) 
YKGLYKRWKJHQOZ-UHFFFAOYSA-N

>  <HIPPO Compound ID>  (18) 
1565

>  <scratch_subdir>  (18) 
/opt/xchem-fragalysis-2/maxwin/BulkDock/SCRATCH/505520/C1565-P10

>  <fragmenstein_outcome>  (18) 
acceptable

>  <fragmenstein_error>  (18) 


>  <ref_pdb>  (18) 
1

>  <HIPPO Pose ID>  (18) 
318

>  <Energy>  (18) 
1.533349

$$$$
CC[S@@](=O)(=NCc1cccc2nncn12)NCc1ccc2c(c1)OCO2
     RDKit          3D

 26 29  0  0  0  0  0  0  0  0999 V2000
   -1.9607   -0.3877   32.8872 C   0  0  0  0  0  0  0  0  0  0  0  0
   -1.8472   -0.8749   31.4649 C   0  0  0  0  0  0  0  0  0  0  0  0
   -0.8550   -2.3356   31.3634 S   0  0  1  0  0  0  0  0  0  0  0  0
    0.5297   -1.9565   31.5395 O   0  0  0  0  0  0  0  0  0  0  0  0
   -1.5269   -3.4672   32.1618 N   0  0  0  0  0  0  0  0  0  0  0  0
   -0.6208   -4.2170   33.0772 C   0  0  0  0  0  0  0  0  0  0  0  0
    0.0229   -5.3113   32.2798 C   0  0  0  0  0  0  0  0  0  0  0  0
    1.0765   -5.0831   31.4642 C   0  0  0  0  0  0  0  0  0  0  0  0
    1.4319   -6.0703   30.4691 C   0  0  0  0  0  0  0  0  0  0  0  0
    0.7367   -7.2151   30.3484 C   0  0  0  0  0  0  0  0  0  0  0  0
   -0.3255   -7.4921   31.2271 C   0  0  0  0  0  0  0  0  0  0  0  0
   -1.1584   -8.5017   31.3140 N   0  0  0  0  0  0  0  0  0  0  0  0
   -1.8898   -8.3158   32.4538 N   0  0  0  0  0  0  0  0  0  0  0  0
   -1.4914   -7.1970   33.0149 C   0  0  0  0  0  0  0  0  0  0  0  0
   -0.5900   -6.5643   32.2138 N   0  0  0  0  0  0  0  0  0  0  0  0
   -0.9383   -2.9263   29.8023 N   0  0  0  0  0  0  0  0  0  0  0  0
   -0.0820   -2.4337   28.7435 C   0  0  0  0  0  0  0  0  0  0  0  0
   -0.3531   -1.0039   28.3437 C   0  0  0  0  0  0  0  0  0  0  0  0
    0.5965    0.0073   28.6215 C   0  0  0  0  0  0  0  0  0  0  0  0
    0.3785    1.3313   28.2245 C   0  0  0  0  0  0  0  0  0  0  0  0
   -0.7913    1.6168   27.5560 C   0  0  0  0  0  0  0  0  0  0  0  0
   -1.7239    0.6462   27.2887 C   0  0  0  0  0  0  0  0  0  0  0  0
   -1.5396   -0.6658   27.6722 C   0  0  0  0  0  0  0  0  0  0  0  0
   -2.7922    1.1331   26.6046 O   0  0  0  0  0  0  0  0  0  0  0  0
   -2.4581    2.5314   26.5218 C   0  0  0  0  0  0  0  0  0  0  0  0
   -1.1588    2.8354   27.0781 O   0  0  0  0  0  0  0  0  0  0  0  0
  1  2  1  0
  3  2  1  6
  3  4  2  0
  3  5  2  0
  5  6  1  0
  6  7  1  0
  7  8  2  0
  8  9  1  0
  9 10  2  0
 10 11  1  0
 11 12  2  0
 12 13  1  0
 13 14  2  0
 14 15  1  0
  3 16  1  0
 16 17  1  0
 17 18  1  0
 18 19  2  0
 19 20  1  0
 20 21  2  0
 21 22  1  0
 22 23  2  0
 22 24  1  0
 24 25  1  0
 25 26  1  0
 15  7  1  0
 23 18  1  0
 15 11  1  0
 26 21  1  0
M  END
>  <tags>  (19) 
{'openbind_d68ev3c_c1_fragmenstein', 'fragmenstein_placed'}

>  <fragmenstein_mode>  (19) 
expansion

>  <smiles>  (19) 
C1624-P13

>  <alias>  (19) 
CC[S@@](=O)(=NCc1cccc2nncn12)NCc1ccc2c(c1)OCO2

>  <fragmenstein_runtime>  (19) 
2.795332

>  <inchikey>  (19) 
VARLVDFTNYDJMC-UHFFFAOYSA-N

>  <HIPPO Compound ID>  (19) 
1624

>  <scratch_subdir>  (19) 
/opt/xchem-fragalysis-2/maxwin/BulkDock/SCRATCH/505520/C1624-P13

>  <fragmenstein_outcome>  (19) 
acceptable

>  <fragmenstein_error>  (19) 


>  <ref_pdb>  (19) 
1

>  <HIPPO Pose ID>  (19) 
361

>  <Energy>  (19) 
-83.303235

$$$$
CC[S@@](=O)(=NCc1cc2nnc(N)n2cc1-c1cnccn1)NCc1ccc2c(c1)OCO2
     RDKit          3D

 33 37  0  0  0  0  0  0  0  0999 V2000
   -2.4287   -0.5285   31.7223 C   0  0  0  0  0  0  0  0  0  0  0  0
   -0.9310   -0.6574   31.6266 C   0  0  0  0  0  0  0  0  0  0  0  0
   -0.4017   -2.2716   31.1662 S   0  0  1  0  0  0  0  0  0  0  0  0
    1.0411   -2.2444   31.0736 O   0  0  0  0  0  0  0  0  0  0  0  0
   -1.1748   -3.2733   32.0247 N   0  0  0  0  0  0  0  0  0  0  0  0
   -0.3660   -3.7823   33.1333 C   0  0  0  0  0  0  0  0  0  0  0  0
    0.6674   -4.8204   32.6273 C   0  0  0  0  0  0  0  0  0  0  0  0
    0.3087   -5.6721   31.6210 C   0  0  0  0  0  0  0  0  0  0  0  0
   -0.5480   -6.7261   32.0635 C   0  0  0  0  0  0  0  0  0  0  0  0
   -1.3614   -7.5810   31.4860 N   0  0  0  0  0  0  0  0  0  0  0  0
   -2.0198   -8.2441   32.5032 N   0  0  0  0  0  0  0  0  0  0  0  0
   -1.5815   -7.7817   33.6580 C   0  0  0  0  0  0  0  0  0  0  0  0
   -2.0557   -8.0094   34.9174 N   0  0  0  0  0  0  0  0  0  0  0  0
   -0.4920   -6.9978   33.4231 N   0  0  0  0  0  0  0  0  0  0  0  0
    0.4964   -6.5023   34.2785 C   0  0  0  0  0  0  0  0  0  0  0  0
    1.2365   -5.4593   33.8459 C   0  0  0  0  0  0  0  0  0  0  0  0
    2.3172   -4.8790   34.6620 C   0  0  0  0  0  0  0  0  0  0  0  0
    3.2717   -5.6640   35.3061 C   0  0  0  0  0  0  0  0  0  0  0  0
    4.2830   -5.1479   36.0463 N   0  0  0  0  0  0  0  0  0  0  0  0
    4.3153   -3.7986   36.1102 C   0  0  0  0  0  0  0  0  0  0  0  0
    3.3765   -3.0075   35.4714 C   0  0  0  0  0  0  0  0  0  0  0  0
    2.3604   -3.5282   34.7431 N   0  0  0  0  0  0  0  0  0  0  0  0
   -0.9120   -2.7035   29.6614 N   0  0  0  0  0  0  0  0  0  0  0  0
   -0.2095   -2.3171   28.4705 C   0  0  0  0  0  0  0  0  0  0  0  0
   -0.4223   -0.8715   28.1139 C   0  0  0  0  0  0  0  0  0  0  0  0
    0.5887    0.0902   28.3366 C   0  0  0  0  0  0  0  0  0  0  0  0
    0.3927    1.4282   27.9818 C   0  0  0  0  0  0  0  0  0  0  0  0
   -0.8126    1.7684   27.4063 C   0  0  0  0  0  0  0  0  0  0  0  0
   -1.8012    0.8405   27.1927 C   0  0  0  0  0  0  0  0  0  0  0  0
   -1.6415   -0.4795   27.5422 C   0  0  0  0  0  0  0  0  0  0  0  0
   -2.8950    1.3739   26.5909 O   0  0  0  0  0  0  0  0  0  0  0  0
   -2.5110    2.7581   26.5012 C   0  0  0  0  0  0  0  0  0  0  0  0
   -1.1643    3.0061   26.9679 O   0  0  0  0  0  0  0  0  0  0  0  0
  1  2  1  0
  3  2  1  1
  3  4  2  0
  3  5  2  0
  5  6  1  0
  6  7  1  0
  7  8  2  0
  8  9  1  0
  9 10  2  0
 10 11  1  0
 11 12  2  0
 12 13  1  0
 12 14  1  0
 14 15  1  0
 15 16  2  0
 16 17  1  0
 17 18  2  0
 18 19  1  0
 19 20  2  0
 20 21  1  0
 21 22  2  0
  3 23  1  0
 23 24  1  0
 24 25  1  0
 25 26  2  0
 26 27  1  0
 27 28  2  0
 28 29  1  0
 29 30  2  0
 29 31  1  0
 31 32  1  0
 32 33  1  0
 16  7  1  0
 22 17  1  0
 30 25  1  0
 14  9  1  0
 33 28  1  0
M  END
>  <tags>  (20) 
{'openbind_d68ev3c_c1_fragmenstein', 'fragmenstein_placed'}

>  <fragmenstein_mode>  (20) 
expansion

>  <smiles>  (20) 
C1632-P13

>  <alias>  (20) 
CC[S@@](=O)(=NCc1cc2nnc(N)n2cc1-c1cnccn1)NCc1ccc2c(c1)OCO2

>  <fragmenstein_runtime>  (20) 
2.902782

>  <inchikey>  (20) 
MFUIOSQSBPZWTL-UHFFFAOYSA-N

>  <HIPPO Compound ID>  (20) 
1632

>  <scratch_subdir>  (20) 
/opt/xchem-fragalysis-2/maxwin/BulkDock/SCRATCH/505520/C1632-P13

>  <fragmenstein_outcome>  (20) 
acceptable

>  <fragmenstein_error>  (20) 


>  <ref_pdb>  (20) 
1

>  <HIPPO Pose ID>  (20) 
370

>  <Energy>  (20) 
60.801907

$$$$
Cc1[nH]cc2c1CC(=O)N=C2C(=O)NC(C)(CO)CO
     RDKit          3D

 20 21  0  0  0  0  0  0  0  0999 V2000
   10.9318   -3.1261   14.6011 C   0  0  0  0  0  0  0  0  0  0  0  0
   11.9247   -2.3268   15.3112 C   0  0  0  0  0  0  0  0  0  0  0  0
   12.0721   -0.9858   15.0697 N   0  0  0  0  0  0  0  0  0  0  0  0
   13.0271   -0.4892   15.9172 C   0  0  0  0  0  0  0  0  0  0  0  0
   13.5019   -1.5393   16.6734 C   0  0  0  0  0  0  0  0  0  0  0  0
   12.8302   -2.6952   16.2711 C   0  0  0  0  0  0  0  0  0  0  0  0
   13.1173   -3.9939   16.9000 C   0  0  0  0  0  0  0  0  0  0  0  0
   14.3167   -3.9244   17.8397 C   0  0  0  0  0  0  0  0  0  0  0  0
   14.7526   -4.9949   18.2728 O   0  0  0  0  0  0  0  0  0  0  0  0
   14.8679   -2.7125   18.2383 N   0  0  0  0  0  0  0  0  0  0  0  0
   14.4745   -1.5792   17.7339 C   0  0  0  0  0  0  0  0  0  0  0  0
   15.0185   -0.2817   18.3164 C   0  0  0  0  0  0  0  0  0  0  0  0
   14.2838    0.5986   18.5095 O   0  0  0  0  0  0  0  0  0  0  0  0
   16.5335   -0.3715   18.5140 N   0  0  0  0  0  0  0  0  0  0  0  0
   17.5030    0.6503   18.9095 C   0  0  0  0  0  0  0  0  0  0  0  0
   18.3275    1.0387   17.6731 C   0  0  0  0  0  0  0  0  0  0  0  0
   16.7885    1.9203   19.4431 C   0  0  0  0  0  0  0  0  0  0  0  0
   15.9586    1.6276   20.5635 O   0  0  0  0  0  0  0  0  0  0  0  0
   18.4095    0.0572   20.0115 C   0  0  0  0  0  0  0  0  0  0  0  0
   19.1380   -1.0678   19.5083 O   0  0  0  0  0  0  0  0  0  0  0  0
  1  2  1  0
  2  3  1  0
  3  4  1  0
  4  5  2  0
  5  6  1  0
  6  7  1  0
  7  8  1  0
  8  9  2  0
  8 10  1  0
 10 11  2  0
 11 12  1  0
 12 13  2  0
 12 14  1  0
 14 15  1  0
 15 16  1  0
 15 17  1  0
 17 18  1  0
 15 19  1  0
 19 20  1  0
  6  2  2  0
 11  5  1  0
M  END
>  <tags>  (21) 
{'openbind_d68ev3c_c1_fragmenstein', 'fragmenstein_placed'}

>  <fragmenstein_mode>  (21) 
expansion

>  <smiles>  (21) 
C1676-P15

>  <alias>  (21) 
Cc1[nH]cc2c1CC(=O)N=C2C(=O)NC(C)(CO)CO

>  <fragmenstein_runtime>  (21) 
2.178083

>  <inchikey>  (21) 
KZJYGOFBWIXLCF-UHFFFAOYSA-N

>  <HIPPO Compound ID>  (21) 
1676

>  <scratch_subdir>  (21) 
/opt/xchem-fragalysis-2/maxwin/BulkDock/SCRATCH/505520/C1676-P15

>  <fragmenstein_outcome>  (21) 
acceptable

>  <fragmenstein_error>  (21) 


>  <ref_pdb>  (21) 
1

>  <HIPPO Pose ID>  (21) 
390

>  <Energy>  (21) 
127.582548

$$$$
Oc1ccccc1[C@@](O)(c1ccccc1)N1CC(O)C1
     RDKit          3D

 20 22  0  0  0  0  0  0  0  0999 V2000
   14.4285   -0.0679   15.0990 O   0  0  0  0  0  0  0  0  0  0  0  0
   13.7991   -1.2629   15.3179 C   0  0  0  0  0  0  0  0  0  0  0  0
   12.5804   -1.4889   14.6632 C   0  0  0  0  0  0  0  0  0  0  0  0
   11.7891   -2.5739   15.0227 C   0  0  0  0  0  0  0  0  0  0  0  0
   12.2103   -3.4237   16.0358 C   0  0  0  0  0  0  0  0  0  0  0  0
   13.4474   -3.2256   16.6493 C   0  0  0  0  0  0  0  0  0  0  0  0
   14.3012   -2.1633   16.2760 C   0  0  0  0  0  0  0  0  0  0  0  0
   15.6812   -2.0039   16.9625 C   0  0  1  0  0  0  0  0  0  0  0  0
   16.6092   -1.4555   16.0199 O   0  0  0  0  0  0  0  0  0  0  0  0
   15.5254   -1.0526   18.1846 C   0  0  0  0  0  0  0  0  0  0  0  0
   15.6410    0.3458   18.0483 C   0  0  0  0  0  0  0  0  0  0  0  0
   15.4999    1.1980   19.1469 C   0  0  0  0  0  0  0  0  0  0  0  0
   15.2193    0.6736   20.4043 C   0  0  0  0  0  0  0  0  0  0  0  0
   15.0656   -0.7002   20.5613 C   0  0  0  0  0  0  0  0  0  0  0  0
   15.2113   -1.5528   19.4640 C   0  0  0  0  0  0  0  0  0  0  0  0
   16.2017   -3.3302   17.4064 N   0  0  0  0  0  0  0  0  0  0  0  0
   17.6152   -3.3004   17.8359 C   0  0  0  0  0  0  0  0  0  0  0  0
   17.8629   -4.5819   17.0079 C   0  0  0  0  0  0  0  0  0  0  0  0
   19.0738   -4.6295   16.2222 O   0  0  0  0  0  0  0  0  0  0  0  0
   16.5594   -4.2086   16.2679 C   0  0  0  0  0  0  0  0  0  0  0  0
  1  2  1  0
  2  3  2  0
  3  4  1  0
  4  5  2  0
  5  6  1  0
  6  7  2  0
  7  8  1  0
  8  9  1  6
  8 10  1  0
 10 11  2  0
 11 12  1  0
 12 13  2  0
 13 14  1  0
 14 15  2  0
  8 16  1  0
 16 17  1  0
 17 18  1  0
 18 19  1  0
 18 20  1  0
  7  2  1  0
 15 10  1  0
 20 16  1  0
M  END
>  <tags>  (22) 
{'openbind_d68ev3c_c1_fragmenstein', 'fragmenstein_placed'}

>  <fragmenstein_mode>  (22) 
expansion

>  <smiles>  (22) 
C1775-P23

>  <alias>  (22) 
Oc1ccccc1[C@@](O)(c1ccccc1)N1CC(O)C1

>  <fragmenstein_runtime>  (22) 
3.624268

>  <inchikey>  (22) 
YCWZEBQPMKVRAJ-UHFFFAOYSA-N

>  <HIPPO Compound ID>  (22) 
1775

>  <scratch_subdir>  (22) 
/opt/xchem-fragalysis-2/maxwin/BulkDock/SCRATCH/505520/C1775-P23

>  <fragmenstein_outcome>  (22) 
acceptable

>  <fragmenstein_error>  (22) 


>  <ref_pdb>  (22) 
1

>  <HIPPO Pose ID>  (22) 
444

>  <Energy>  (22) 
58.097021

$$$$
CNc1ccc([C@@](C=O)(c2ccccc2)N2CC(O)C2)cc1O
     RDKit          3D

 23 25  0  0  0  0  0  0  0  0999 V2000
   10.3584   -2.5377   15.0498 C   0  0  0  0  0  0  0  0  0  0  0  0
   11.4829   -2.1541   14.2500 N   0  0  0  0  0  0  0  0  0  0  0  0
   12.6552   -2.1225   15.0052 C   0  0  0  0  0  0  0  0  0  0  0  0
   12.9273   -3.1215   15.9449 C   0  0  0  0  0  0  0  0  0  0  0  0
   14.0888   -3.0873   16.6831 C   0  0  0  0  0  0  0  0  0  0  0  0
   15.0475   -2.0897   16.4493 C   0  0  0  0  0  0  0  0  0  0  0  0
   16.3633   -2.0830   17.2651 C   0  0  1  0  0  0  0  0  0  0  0  0
   17.5440   -1.6753   16.3265 C   0  0  0  0  0  0  0  0  0  0  0  0
   18.6596   -1.2931   16.6823 O   0  0  0  0  0  0  0  0  0  0  0  0
   16.1172   -1.0664   18.4169 C   0  0  0  0  0  0  0  0  0  0  0  0
   16.4213    0.3011   18.2781 C   0  0  0  0  0  0  0  0  0  0  0  0
   16.0834    1.2205   19.2757 C   0  0  0  0  0  0  0  0  0  0  0  0
   15.4337    0.7954   20.4306 C   0  0  0  0  0  0  0  0  0  0  0  0
   15.1146   -0.5486   20.5891 C   0  0  0  0  0  0  0  0  0  0  0  0
   15.4442   -1.4673   19.5907 C   0  0  0  0  0  0  0  0  0  0  0  0
   16.6272   -3.4630   17.8095 N   0  0  0  0  0  0  0  0  0  0  0  0
   17.9173   -3.6311   18.4885 C   0  0  0  0  0  0  0  0  0  0  0  0
   18.3894   -4.5939   17.3763 C   0  0  0  0  0  0  0  0  0  0  0  0
   19.4775   -4.1706   16.5267 O   0  0  0  0  0  0  0  0  0  0  0  0
   16.9765   -4.4617   16.7838 C   0  0  0  0  0  0  0  0  0  0  0  0
   14.7567   -1.0637   15.5265 C   0  0  0  0  0  0  0  0  0  0  0  0
   13.5650   -1.0840   14.8233 C   0  0  0  0  0  0  0  0  0  0  0  0
   13.2046   -0.0396   14.0170 O   0  0  0  0  0  0  0  0  0  0  0  0
  1  2  1  0
  2  3  1  0
  3  4  2  0
  4  5  1  0
  5  6  2  0
  6  7  1  0
  7  8  1  0
  8  9  2  0
  7 10  1  0
 10 11  2  0
 11 12  1  0
 12 13  2  0
 13 14  1  0
 14 15  2  0
  7 16  1  1
 16 17  1  0
 17 18  1  0
 18 19  1  0
 18 20  1  0
  6 21  1  0
 21 22  2  0
 22 23  1  0
 22  3  1  0
 15 10  1  0
 20 16  1  0
M  END
>  <tags>  (23) 
{'openbind_d68ev3c_c1_fragmenstein', 'fragmenstein_placed'}

>  <fragmenstein_mode>  (23) 
expansion

>  <smiles>  (23) 
C1778-P23

>  <alias>  (23) 
CNc1ccc([C@@](C=O)(c2ccccc2)N2CC(O)C2)cc1O

>  <fragmenstein_runtime>  (23) 
3.446046

>  <inchikey>  (23) 
KPKNZFDDSLALLN-UHFFFAOYSA-N

>  <HIPPO Compound ID>  (23) 
1778

>  <scratch_subdir>  (23) 
/opt/xchem-fragalysis-2/maxwin/BulkDock/SCRATCH/505520/C1778-P23

>  <fragmenstein_outcome>  (23) 
acceptable

>  <fragmenstein_error>  (23) 


>  <ref_pdb>  (23) 
1

>  <HIPPO Pose ID>  (23) 
446

>  <Energy>  (23) 
151.821435

$$$$
OC1CCN(Cc2ccccc2[C@H](c2ccccc2)N2CC(O)C2)CC1
     RDKit          3D

 26 29  0  0  0  0  0  0  0  0999 V2000
   13.6170    2.8721   11.9348 O   0  0  0  0  0  0  0  0  0  0  0  0
   14.2505    2.0847   12.9407 C   0  0  0  0  0  0  0  0  0  0  0  0
   13.6280    2.3732   14.3049 C   0  0  0  0  0  0  0  0  0  0  0  0
   14.6446    2.4119   15.4497 C   0  0  0  0  0  0  0  0  0  0  0  0
   15.6269    1.3426   15.2705 N   0  0  0  0  0  0  0  0  0  0  0  0
   16.5051    1.1400   16.4308 C   0  0  0  0  0  0  0  0  0  0  0  0
   15.8683    0.5528   17.6859 C   0  0  0  0  0  0  0  0  0  0  0  0
   15.6935    1.4348   18.7774 C   0  0  0  0  0  0  0  0  0  0  0  0
   15.2449    0.9882   20.0204 C   0  0  0  0  0  0  0  0  0  0  0  0
   14.9512   -0.3535   20.2038 C   0  0  0  0  0  0  0  0  0  0  0  0
   15.0872   -1.2391   19.1368 C   0  0  0  0  0  0  0  0  0  0  0  0
   15.5431   -0.8190   17.8620 C   0  0  0  0  0  0  0  0  0  0  0  0
   15.6654   -1.8840   16.7480 C   0  0  2  0  0  0  0  0  0  0  0  0
   14.2897   -2.1869   16.1336 C   0  0  0  0  0  0  0  0  0  0  0  0
   13.8581   -1.4936   14.9923 C   0  0  0  0  0  0  0  0  0  0  0  0
   12.5944   -1.7184   14.4450 C   0  0  0  0  0  0  0  0  0  0  0  0
   11.7546   -2.6717   15.0066 C   0  0  0  0  0  0  0  0  0  0  0  0
   12.1799   -3.3993   16.1125 C   0  0  0  0  0  0  0  0  0  0  0  0
   13.4253   -3.1472   16.6856 C   0  0  0  0  0  0  0  0  0  0  0  0
   16.2881   -3.1337   17.2698 N   0  0  0  0  0  0  0  0  0  0  0  0
   17.7308   -2.9536   17.5678 C   0  0  0  0  0  0  0  0  0  0  0  0
   17.9645   -4.3628   16.9625 C   0  0  0  0  0  0  0  0  0  0  0  0
   19.1760   -4.5571   16.2048 O   0  0  0  0  0  0  0  0  0  0  0  0
   16.6774   -4.0511   16.1605 C   0  0  0  0  0  0  0  0  0  0  0  0
   16.4400    1.5767   14.0564 C   0  0  0  0  0  0  0  0  0  0  0  0
   15.7372    2.3749   12.9529 C   0  0  0  0  0  0  0  0  0  0  0  0
  1  2  1  0
  2  3  1  0
  3  4  1  0
  4  5  1  0
  5  6  1  0
  6  7  1  0
  7  8  2  0
  8  9  1  0
  9 10  2  0
 10 11  1  0
 11 12  2  0
 12 13  1  0
 13 14  1  0
 14 15  2  0
 15 16  1  0
 16 17  2  0
 17 18  1  0
 18 19  2  0
 13 20  1  1
 20 21  1  0
 21 22  1  0
 22 23  1  0
 22 24  1  0
  5 25  1  0
 25 26  1  0
 26  2  1  0
 12  7  1  0
 19 14  1  0
 24 20  1  0
M  END
>  <tags>  (24) 
{'openbind_d68ev3c_c1_fragmenstein', 'fragmenstein_placed'}

>  <fragmenstein_mode>  (24) 
expansion

>  <smiles>  (24) 
C1780-P23

>  <alias>  (24) 
OC1CCN(Cc2ccccc2[C@H](c2ccccc2)N2CC(O)C2)CC1

>  <fragmenstein_runtime>  (24) 
23.033983

>  <inchikey>  (24) 
CGBRBSYAYWOUQG-UHFFFAOYSA-N

>  <HIPPO Compound ID>  (24) 
1780

>  <scratch_subdir>  (24) 
/opt/xchem-fragalysis-2/maxwin/BulkDock/SCRATCH/505520/C1780-P23

>  <fragmenstein_outcome>  (24) 
acceptable

>  <fragmenstein_error>  (24) 


>  <ref_pdb>  (24) 
1

>  <HIPPO Pose ID>  (24) 
447

>  <Energy>  (24) 
97.699081

$$$$
O=C1NC(=O)[C@@]2(C[C@H](F)c3ccc(Sc4cccc5nncn45)cc32)N1
     RDKit          3D

 26 30  0  0  0  0  0  0  0  0999 V2000
   -9.0697   -4.9260    6.6912 O   0  0  0  0  0  0  0  0  0  0  0  0
   -8.6886   -3.7928    6.9010 C   0  0  0  0  0  0  0  0  0  0  0  0
   -8.9713   -3.0446    7.9866 N   0  0  0  0  0  0  0  0  0  0  0  0
   -8.2355   -1.9099    7.9784 C   0  0  0  0  0  0  0  0  0  0  0  0
   -8.3143   -0.9859    8.7724 O   0  0  0  0  0  0  0  0  0  0  0  0
   -7.3152   -1.9523    6.7505 C   0  0  2  0  0  0  0  0  0  0  0  0
   -5.8331   -2.0877    7.0621 C   0  0  0  0  0  0  0  0  0  0  0  0
   -5.2922   -0.6682    7.2148 C   0  0  2  0  0  0  0  0  0  0  0  0
   -5.2353   -0.3464    8.5303 F   0  0  0  0  0  0  0  0  0  0  0  0
   -6.2806    0.1490    6.4288 C   0  0  0  0  0  0  0  0  0  0  0  0
   -6.3104    1.5166    6.2339 C   0  0  0  0  0  0  0  0  0  0  0  0
   -7.5042    2.1048    5.8086 C   0  0  0  0  0  0  0  0  0  0  0  0
   -8.6453    1.3263    5.5482 C   0  0  0  0  0  0  0  0  0  0  0  0
  -10.2238    2.1724    5.4650 S   0  0  0  0  0  0  0  0  0  0  0  0
  -11.3218    0.9291    5.9960 C   0  0  0  0  0  0  0  0  0  0  0  0
  -12.0715    0.3011    5.0659 C   0  0  0  0  0  0  0  0  0  0  0  0
  -12.9804   -0.7583    5.4616 C   0  0  0  0  0  0  0  0  0  0  0  0
  -13.1369   -1.1037    6.7517 C   0  0  0  0  0  0  0  0  0  0  0  0
  -12.3897   -0.4300    7.7526 C   0  0  0  0  0  0  0  0  0  0  0  0
  -12.3923   -0.5208    9.0648 N   0  0  0  0  0  0  0  0  0  0  0  0
  -11.4488    0.3534    9.5477 N   0  0  0  0  0  0  0  0  0  0  0  0
  -10.8939    0.9548    8.5161 C   0  0  0  0  0  0  0  0  0  0  0  0
  -11.4800    0.5441    7.3450 N   0  0  0  0  0  0  0  0  0  0  0  0
   -8.5450   -0.0631    5.5538 C   0  0  0  0  0  0  0  0  0  0  0  0
   -7.3886   -0.6263    6.0679 C   0  0  0  0  0  0  0  0  0  0  0  0
   -7.8404   -3.0951    6.0730 N   0  0  0  0  0  0  0  0  0  0  0  0
  1  2  2  0
  2  3  1  0
  3  4  1  0
  4  5  2  0
  4  6  1  0
  6  7  1  1
  7  8  1  0
  8  9  1  1
  8 10  1  0
 10 11  2  0
 11 12  1  0
 12 13  2  0
 13 14  1  0
 14 15  1  0
 15 16  2  0
 16 17  1  0
 17 18  2  0
 18 19  1  0
 19 20  2  0
 20 21  1  0
 21 22  2  0
 22 23  1  0
 13 24  1  0
 24 25  2  0
  6 26  1  0
 26  2  1  0
 25  6  1  0
 25 10  1  0
 23 15  1  0
 23 19  1  0
M  END
>  <tags>  (25) 
{'openbind_d68ev3c_c1_fragmenstein', 'fragmenstein_placed'}

>  <fragmenstein_mode>  (25) 
expansion

>  <smiles>  (25) 
C395-P51

>  <alias>  (25) 
O=C1NC(=O)[C@@]2(C[C@H](F)c3ccc(Sc4cccc5nncn45)cc32)N1

>  <fragmenstein_runtime>  (25) 
4.954219

>  <inchikey>  (25) 
FKWDUSSUZVTDPB-UHFFFAOYSA-N

>  <HIPPO Compound ID>  (25) 
395

>  <scratch_subdir>  (25) 
/opt/xchem-fragalysis-2/maxwin/BulkDock/SCRATCH/505733/C395-P51

>  <fragmenstein_outcome>  (25) 
acceptable

>  <fragmenstein_error>  (25) 


>  <ref_pdb>  (25) 
50

>  <HIPPO Pose ID>  (25) 
479

>  <Energy>  (25) 
1.940442

$$$$
Cc1cc(-n2cnc3cccc(C)c32)ccc1CO
     RDKit          3D

 19 21  0  0  0  0  0  0  0  0999 V2000
  -12.6718  -25.5797   27.3873 C   0  0  0  0  0  0  0  0  0  0  0  0
  -12.3364  -24.2007   27.8815 C   0  0  0  0  0  0  0  0  0  0  0  0
  -12.4123  -23.9301   29.2384 C   0  0  0  0  0  0  0  0  0  0  0  0
  -12.0851  -22.6632   29.7222 C   0  0  0  0  0  0  0  0  0  0  0  0
  -12.0446  -22.4368   31.0943 N   0  0  0  0  0  0  0  0  0  0  0  0
  -12.7301  -21.4522   31.7483 C   0  0  0  0  0  0  0  0  0  0  0  0
  -12.3934  -21.3659   33.0074 N   0  0  0  0  0  0  0  0  0  0  0  0
  -11.5271  -22.4102   33.1897 C   0  0  0  0  0  0  0  0  0  0  0  0
  -10.9241  -22.8281   34.3691 C   0  0  0  0  0  0  0  0  0  0  0  0
  -10.0126  -23.8770   34.3167 C   0  0  0  0  0  0  0  0  0  0  0  0
   -9.7423  -24.5380   33.1241 C   0  0  0  0  0  0  0  0  0  0  0  0
  -10.3449  -24.1694   31.9169 C   0  0  0  0  0  0  0  0  0  0  0  0
   -9.9943  -24.9418   30.6808 C   0  0  0  0  0  0  0  0  0  0  0  0
  -11.2597  -23.0996   32.0066 C   0  0  0  0  0  0  0  0  0  0  0  0
  -11.7048  -21.6302   28.8848 C   0  0  0  0  0  0  0  0  0  0  0  0
  -11.6595  -21.8876   27.5328 C   0  0  0  0  0  0  0  0  0  0  0  0
  -11.9914  -23.1468   27.0197 C   0  0  0  0  0  0  0  0  0  0  0  0
  -11.9588  -23.3655   25.5464 C   0  0  0  0  0  0  0  0  0  0  0  0
  -12.1803  -22.1946   24.7878 O   0  0  0  0  0  0  0  0  0  0  0  0
  1  2  1  0
  2  3  2  0
  3  4  1  0
  4  5  1  0
  5  6  1  0
  6  7  2  0
  7  8  1  0
  8  9  2  0
  9 10  1  0
 10 11  2  0
 11 12  1  0
 12 13  1  0
 12 14  2  0
  4 15  2  0
 15 16  1  0
 16 17  2  0
 17 18  1  0
 18 19  1  0
 17  2  1  0
 14  5  1  0
 14  8  1  0
M  END
>  <tags>  (26) 
{'openbind_d68ev3c_c1_fragmenstein', 'fragmenstein_placed'}

>  <fragmenstein_mode>  (26) 
expansion

>  <smiles>  (26) 
C411-P52

>  <alias>  (26) 
Cc1cc(-n2cnc3cccc(C)c32)ccc1CO

>  <fragmenstein_runtime>  (26) 
2.749896

>  <inchikey>  (26) 
PJDLLYYAKUXSMG-UHFFFAOYSA-N

>  <HIPPO Compound ID>  (26) 
411

>  <scratch_subdir>  (26) 
/opt/xchem-fragalysis-2/maxwin/BulkDock/SCRATCH/505733/C411-P52

>  <fragmenstein_outcome>  (26) 
acceptable

>  <fragmenstein_error>  (26) 


>  <ref_pdb>  (26) 
50

>  <HIPPO Pose ID>  (26) 
487

>  <Energy>  (26) 
81.425595

$$$$
C=CCn1c(Sc2cccc3nncn23)nnc1-c1ccc(CN[C@]2(C(=O)Nc3cccc(C)n3)CCCN2)nc1
     RDKit          3D

 41 46  0  0  0  0  0  0  0  0999 V2000
   -1.7242   -1.9129   31.0223 C   0  0  0  0  0  0  0  0  0  0  0  0
   -0.7657   -2.7354   31.4683 C   0  0  0  0  0  0  0  0  0  0  0  0
    0.6121   -2.8258   30.8699 C   0  0  0  0  0  0  0  0  0  0  0  0
    1.6357   -2.6948   31.8942 N   0  0  0  0  0  0  0  0  0  0  0  0
    2.3055   -3.6879   32.5446 C   0  0  0  0  0  0  0  0  0  0  0  0
    2.3478   -5.3236   32.0144 S   0  0  0  0  0  0  0  0  0  0  0  0
    0.9927   -5.9681   32.8705 C   0  0  0  0  0  0  0  0  0  0  0  0
    0.8399   -5.8072   34.2011 C   0  0  0  0  0  0  0  0  0  0  0  0
   -0.2549   -6.4744   34.8844 C   0  0  0  0  0  0  0  0  0  0  0  0
   -1.1188   -7.2607   34.2180 C   0  0  0  0  0  0  0  0  0  0  0  0
   -0.9953   -7.4139   32.8128 C   0  0  0  0  0  0  0  0  0  0  0  0
   -1.7088   -8.0628   31.9164 N   0  0  0  0  0  0  0  0  0  0  0  0
   -1.1265   -7.8716   30.6894 N   0  0  0  0  0  0  0  0  0  0  0  0
   -0.0622   -7.1250   30.8727 C   0  0  0  0  0  0  0  0  0  0  0  0
    0.0628   -6.7729   32.1915 N   0  0  0  0  0  0  0  0  0  0  0  0
    3.0022   -3.1846   33.5350 N   0  0  0  0  0  0  0  0  0  0  0  0
    2.8614   -1.8156   33.4860 N   0  0  0  0  0  0  0  0  0  0  0  0
    2.1148   -1.5204   32.4405 C   0  0  0  0  0  0  0  0  0  0  0  0
    1.8540   -0.2108   31.8832 C   0  0  0  0  0  0  0  0  0  0  0  0
    1.0087    0.7093   32.4970 C   0  0  0  0  0  0  0  0  0  0  0  0
    0.5967    1.8352   31.7828 C   0  0  0  0  0  0  0  0  0  0  0  0
    1.0306    1.9878   30.4685 C   0  0  0  0  0  0  0  0  0  0  0  0
    0.3395    2.9458   29.5083 C   0  0  0  0  0  0  0  0  0  0  0  0
   -0.1749    2.1344   28.4002 N   0  0  0  0  0  0  0  0  0  0  0  0
   -0.8605    2.7804   27.3007 C   0  0  2  0  0  0  0  0  0  0  0  0
   -0.0197    3.9155   26.5961 C   0  0  0  0  0  0  0  0  0  0  0  0
   -0.4857    4.8669   26.1009 O   0  0  0  0  0  0  0  0  0  0  0  0
    1.4660    3.5031   26.7817 N   0  0  0  0  0  0  0  0  0  0  0  0
    2.6197    4.1832   26.4972 C   0  0  0  0  0  0  0  0  0  0  0  0
    2.5978    5.4466   25.9312 C   0  0  0  0  0  0  0  0  0  0  0  0
    3.8024    6.1242   25.7923 C   0  0  0  0  0  0  0  0  0  0  0  0
    4.9747    5.5236   26.2380 C   0  0  0  0  0  0  0  0  0  0  0  0
    4.9033    4.2528   26.7980 C   0  0  0  0  0  0  0  0  0  0  0  0
    6.1280    3.5832   27.3356 C   0  0  0  0  0  0  0  0  0  0  0  0
    3.7431    3.5773   26.9200 N   0  0  0  0  0  0  0  0  0  0  0  0
   -2.2902    3.2037   27.6098 C   0  0  0  0  0  0  0  0  0  0  0  0
   -3.1513    2.4039   26.6501 C   0  0  0  0  0  0  0  0  0  0  0  0
   -2.3470    1.1347   26.5276 C   0  0  0  0  0  0  0  0  0  0  0  0
   -0.9915    1.6545   26.3697 N   0  0  0  0  0  0  0  0  0  0  0  0
    1.9465    1.1564   29.9085 N   0  0  0  0  0  0  0  0  0  0  0  0
    2.3564    0.1011   30.6285 C   0  0  0  0  0  0  0  0  0  0  0  0
  1  2  2  0
  2  3  1  0
  3  4  1  0
  4  5  1  0
  5  6  1  0
  6  7  1  0
  7  8  2  0
  8  9  1  0
  9 10  2  0
 10 11  1  0
 11 12  2  0
 12 13  1  0
 13 14  2  0
 14 15  1  0
  5 16  2  0
 16 17  1  0
 17 18  2  0
 18 19  1  0
 19 20  2  0
 20 21  1  0
 21 22  2  0
 22 23  1  0
 23 24  1  0
 25 24  1  1
 25 26  1  0
 26 27  2  0
 26 28  1  0
 28 29  1  0
 29 30  2  0
 30 31  1  0
 31 32  2  0
 32 33  1  0
 33 34  1  0
 33 35  2  0
 25 36  1  0
 36 37  1  0
 37 38  1  0
 38 39  1  0
 22 40  1  0
 40 41  2  0
 18  4  1  0
 41 19  1  0
 15  7  1  0
 39 25  1  0
 15 11  1  0
 35 29  1  0
M  END
>  <tags>  (27) 
{'openbind_d68ev3c_c1_fragmenstein', 'fragmenstein_placed'}

>  <fragmenstein_mode>  (27) 
expansion

>  <smiles>  (27) 
C434-P53

>  <alias>  (27) 
C=CCn1c(Sc2cccc3nncn23)nnc1-c1ccc(CN[C@]2(C(=O)Nc3cccc(C)n3)CCCN2)nc1

>  <fragmenstein_runtime>  (27) 
12.285194

>  <inchikey>  (27) 
VDIVYEFHRIKYRC-UHFFFAOYSA-N

>  <HIPPO Compound ID>  (27) 
587

>  <scratch_subdir>  (27) 
/opt/xchem-fragalysis-2/maxwin/BulkDock/SCRATCH/505733/C434-P53

>  <fragmenstein_outcome>  (27) 
acceptable

>  <fragmenstein_error>  (27) 


>  <ref_pdb>  (27) 
50

>  <HIPPO Pose ID>  (27) 
501

>  <Energy>  (27) 
100.147558

$$$$
Cc1cccc(NC(=O)[C@H]2CC[C@H](c3ccc(S(=O)(=O)NCCc4nccc(O)n4)cc3)N2)n1
     RDKit          3D

 34 37  0  0  0  0  0  0  0  0999 V2000
    6.0385    3.7799   27.5698 C   0  0  0  0  0  0  0  0  0  0  0  0
    4.8714    4.5156   26.9903 C   0  0  0  0  0  0  0  0  0  0  0  0
    5.0531    5.7138   26.3089 C   0  0  0  0  0  0  0  0  0  0  0  0
    3.9421    6.3527   25.7654 C   0  0  0  0  0  0  0  0  0  0  0  0
    2.6877    5.7750   25.9053 C   0  0  0  0  0  0  0  0  0  0  0  0
    2.6027    4.5819   26.5951 C   0  0  0  0  0  0  0  0  0  0  0  0
    1.4182    3.9239   26.7755 N   0  0  0  0  0  0  0  0  0  0  0  0
   -0.0311    4.3191   26.3632 C   0  0  0  0  0  0  0  0  0  0  0  0
   -0.4194    5.2283   25.7407 O   0  0  0  0  0  0  0  0  0  0  0  0
   -0.8994    3.2401   27.0286 C   0  0  1  0  0  0  0  0  0  0  0  0
   -2.3766    3.3215   26.7503 C   0  0  0  0  0  0  0  0  0  0  0  0
   -2.8771    1.9098   26.9682 C   0  0  0  0  0  0  0  0  0  0  0  0
   -1.6527    1.0133   26.8447 C   0  0  2  0  0  0  0  0  0  0  0  0
   -1.3927    0.1717   28.0800 C   0  0  0  0  0  0  0  0  0  0  0  0
   -1.7454   -1.1758   28.0332 C   0  0  0  0  0  0  0  0  0  0  0  0
   -1.5698   -1.9957   29.1416 C   0  0  0  0  0  0  0  0  0  0  0  0
   -1.0360   -1.4845   30.3179 C   0  0  0  0  0  0  0  0  0  0  0  0
   -0.8846   -2.5529   31.7199 S   0  0  0  0  0  0  0  0  0  0  0  0
   -0.6968   -1.7231   32.8886 O   0  0  0  0  0  0  0  0  0  0  0  0
   -1.9474   -3.5345   31.6468 O   0  0  0  0  0  0  0  0  0  0  0  0
    0.5703   -3.3117   31.4218 N   0  0  0  0  0  0  0  0  0  0  0  0
    0.7468   -4.1954   30.2672 C   0  0  0  0  0  0  0  0  0  0  0  0
    1.5347   -5.4469   30.6339 C   0  0  0  0  0  0  0  0  0  0  0  0
    0.7855   -6.2808   31.6309 C   0  0  0  0  0  0  0  0  0  0  0  0
   -0.3236   -6.9271   31.2164 N   0  0  0  0  0  0  0  0  0  0  0  0
   -1.0529   -7.5066   32.1870 C   0  0  0  0  0  0  0  0  0  0  0  0
   -0.7192   -7.4676   33.5177 C   0  0  0  0  0  0  0  0  0  0  0  0
    0.4724   -6.8603   33.8048 C   0  0  0  0  0  0  0  0  0  0  0  0
    0.9763   -6.8497   35.0714 O   0  0  0  0  0  0  0  0  0  0  0  0
    1.2467   -6.2686   32.8927 N   0  0  0  0  0  0  0  0  0  0  0  0
   -0.6704   -0.1469   30.3956 C   0  0  0  0  0  0  0  0  0  0  0  0
   -0.8420    0.6691   29.2739 C   0  0  0  0  0  0  0  0  0  0  0  0
   -0.5359    1.9028   26.5252 N   0  0  0  0  0  0  0  0  0  0  0  0
    3.6577    3.9511   27.1480 N   0  0  0  0  0  0  0  0  0  0  0  0
  1  2  1  0
  2  3  2  0
  3  4  1  0
  4  5  2  0
  5  6  1  0
  6  7  1  0
  7  8  1  0
  8  9  2  0
 10  8  1  6
 10 11  1  0
 11 12  1  0
 12 13  1  0
 13 14  1  1
 14 15  2  0
 15 16  1  0
 16 17  2  0
 17 18  1  0
 18 19  2  0
 18 20  2  0
 18 21  1  0
 21 22  1  0
 22 23  1  0
 23 24  1  0
 24 25  2  0
 25 26  1  0
 26 27  2  0
 27 28  1  0
 28 29  1  0
 28 30  2  0
 17 31  1  0
 31 32  2  0
 13 33  1  0
  6 34  2  0
 34  2  1  0
 33 10  1  0
 32 14  1  0
 30 24  1  0
M  END
>  <tags>  (28) 
{'openbind_d68ev3c_c1_fragmenstein', 'fragmenstein_placed'}

>  <fragmenstein_mode>  (28) 
expansion

>  <smiles>  (28) 
C438-P53

>  <alias>  (28) 
Cc1cccc(NC(=O)[C@H]2CC[C@H](c3ccc(S(=O)(=O)NCCc4nccc(O)n4)cc3)N2)n1

>  <fragmenstein_runtime>  (28) 
13.277931

>  <inchikey>  (28) 
TTWHSXRVHZJZCJ-UHFFFAOYSA-N

>  <HIPPO Compound ID>  (28) 
438

>  <scratch_subdir>  (28) 
/opt/xchem-fragalysis-2/maxwin/BulkDock/SCRATCH/505733/C438-P53

>  <fragmenstein_outcome>  (28) 
acceptable

>  <fragmenstein_error>  (28) 


>  <ref_pdb>  (28) 
50

>  <HIPPO Pose ID>  (28) 
504

>  <Energy>  (28) 
-44.808121

$$$$
Cc1cccc(NC(=O)[C@H]2CCCN2C[C@@H]2CCN(S(=O)(=O)NCCc3nc(C)cc(O)n3)C2)n1
     RDKit          3D

 35 38  0  0  0  0  0  0  0  0999 V2000
    5.9162    3.7271   27.8583 C   0  0  0  0  0  0  0  0  0  0  0  0
    4.7401    4.3615   27.1838 C   0  0  0  0  0  0  0  0  0  0  0  0
    4.9321    5.3678   26.2415 C   0  0  0  0  0  0  0  0  0  0  0  0
    3.8235    5.8926   25.5883 C   0  0  0  0  0  0  0  0  0  0  0  0
    2.5647    5.3847   25.8787 C   0  0  0  0  0  0  0  0  0  0  0  0
    2.4649    4.3906   26.8371 C   0  0  0  0  0  0  0  0  0  0  0  0
    1.2528    3.8370   27.1571 N   0  0  0  0  0  0  0  0  0  0  0  0
   -0.1029    3.8661   26.3960 C   0  0  0  0  0  0  0  0  0  0  0  0
   -0.4113    4.4309   25.4200 O   0  0  0  0  0  0  0  0  0  0  0  0
   -1.0590    2.9744   27.2331 C   0  0  1  0  0  0  0  0  0  0  0  0
   -2.5158    3.3184   26.9456 C   0  0  0  0  0  0  0  0  0  0  0  0
   -3.1098    2.0832   26.3123 C   0  0  0  0  0  0  0  0  0  0  0  0
   -2.2593    0.9656   26.8608 C   0  0  0  0  0  0  0  0  0  0  0  0
   -0.9281    1.5588   26.8288 N   0  0  0  0  0  0  0  0  0  0  0  0
    0.1177    0.7623   27.4491 C   0  0  0  0  0  0  0  0  0  0  0  0
    0.0691    0.5831   28.9682 C   0  0  2  0  0  0  0  0  0  0  0  0
    1.4411    0.1531   29.4953 C   0  0  0  0  0  0  0  0  0  0  0  0
    1.0946   -0.5068   30.8113 C   0  0  0  0  0  0  0  0  0  0  0  0
   -0.1166   -1.2548   30.4585 N   0  0  0  0  0  0  0  0  0  0  0  0
   -0.8377   -2.2022   31.6023 S   0  0  0  0  0  0  0  0  0  0  0  0
   -2.0199   -2.8513   31.0872 O   0  0  0  0  0  0  0  0  0  0  0  0
   -0.8500   -1.4990   32.8599 O   0  0  0  0  0  0  0  0  0  0  0  0
    0.3715   -3.3573   31.6660 N   0  0  0  0  0  0  0  0  0  0  0  0
    0.5789   -4.1385   30.4135 C   0  0  0  0  0  0  0  0  0  0  0  0
    1.6343   -5.2190   30.6189 C   0  0  0  0  0  0  0  0  0  0  0  0
    1.1534   -6.1568   31.6823 C   0  0  0  0  0  0  0  0  0  0  0  0
    0.0919   -6.9182   31.3858 N   0  0  0  0  0  0  0  0  0  0  0  0
   -0.5119   -7.5298   32.4182 C   0  0  0  0  0  0  0  0  0  0  0  0
   -1.6951   -8.3508   32.0709 C   0  0  0  0  0  0  0  0  0  0  0  0
   -0.0819   -7.4141   33.7205 C   0  0  0  0  0  0  0  0  0  0  0  0
    1.0346   -6.6482   33.9005 C   0  0  0  0  0  0  0  0  0  0  0  0
    1.5963   -6.4893   35.1314 O   0  0  0  0  0  0  0  0  0  0  0  0
    1.6640   -6.0064   32.9145 N   0  0  0  0  0  0  0  0  0  0  0  0
   -0.8891   -0.5237   29.4516 C   0  0  0  0  0  0  0  0  0  0  0  0
    3.5173    3.8871   27.5093 N   0  0  0  0  0  0  0  0  0  0  0  0
  1  2  1  0
  2  3  2  0
  3  4  1  0
  4  5  2  0
  5  6  1  0
  6  7  1  0
  7  8  1  0
  8  9  2  0
 10  8  1  6
 10 11  1  0
 11 12  1  0
 12 13  1  0
 13 14  1  0
 14 15  1  0
 16 15  1  6
 16 17  1  0
 17 18  1  0
 18 19  1  0
 19 20  1  0
 20 21  2  0
 20 22  2  0
 20 23  1  0
 23 24  1  0
 24 25  1  0
 25 26  1  0
 26 27  2  0
 27 28  1  0
 28 29  1  0
 28 30  2  0
 30 31  1  0
 31 32  1  0
 31 33  2  0
 19 34  1  0
  6 35  2  0
 35  2  1  0
 14 10  1  0
 34 16  1  0
 33 26  1  0
M  END
>  <tags>  (29) 
{'openbind_d68ev3c_c1_fragmenstein', 'fragmenstein_placed'}

>  <fragmenstein_mode>  (29) 
expansion

>  <smiles>  (29) 
C439-P53

>  <alias>  (29) 
Cc1cccc(NC(=O)[C@H]2CCCN2C[C@@H]2CCN(S(=O)(=O)NCCc3nc(C)cc(O)n3)C2)n1

>  <fragmenstein_runtime>  (29) 
5.936386

>  <inchikey>  (29) 
DKBJQVKSNYTRLC-UHFFFAOYSA-N

>  <HIPPO Compound ID>  (29) 
439

>  <scratch_subdir>  (29) 
/opt/xchem-fragalysis-2/maxwin/BulkDock/SCRATCH/505733/C439-P53

>  <fragmenstein_outcome>  (29) 
acceptable

>  <fragmenstein_error>  (29) 


>  <ref_pdb>  (29) 
50

>  <HIPPO Pose ID>  (29) 
505

>  <Energy>  (29) 
-177.055165

$$$$
Cc1cccc(NC(=O)[C@@H]2CC[C@H](c3ccc(S(=O)(=O)NCCc4nccc(O)n4)cn3)N2)n1
     RDKit          3D

 34 37  0  0  0  0  0  0  0  0999 V2000
    5.6386    3.6077   27.9084 C   0  0  0  0  0  0  0  0  0  0  0  0
    4.5584    4.3657   27.2004 C   0  0  0  0  0  0  0  0  0  0  0  0
    4.8320    5.6024   26.6262 C   0  0  0  0  0  0  0  0  0  0  0  0
    3.8184    6.2576   25.9381 C   0  0  0  0  0  0  0  0  0  0  0  0
    2.5740    5.6515   25.8246 C   0  0  0  0  0  0  0  0  0  0  0  0
    2.3845    4.4172   26.4230 C   0  0  0  0  0  0  0  0  0  0  0  0
    1.1988    3.7354   26.2890 N   0  0  0  0  0  0  0  0  0  0  0  0
   -0.0770    4.0841   25.4814 C   0  0  0  0  0  0  0  0  0  0  0  0
   -0.2893    4.9657   24.7441 O   0  0  0  0  0  0  0  0  0  0  0  0
   -1.0875    2.9540   25.7477 C   0  0  2  0  0  0  0  0  0  0  0  0
   -2.3035    3.4477   26.5041 C   0  0  0  0  0  0  0  0  0  0  0  0
   -2.7270    2.2888   27.3889 C   0  0  0  0  0  0  0  0  0  0  0  0
   -1.7564    1.1666   27.0662 C   0  0  2  0  0  0  0  0  0  0  0  0
   -1.4813    0.2120   28.2097 C   0  0  0  0  0  0  0  0  0  0  0  0
   -1.6478   -1.1460   27.9838 C   0  0  0  0  0  0  0  0  0  0  0  0
   -1.4233   -2.0322   29.0231 C   0  0  0  0  0  0  0  0  0  0  0  0
   -1.0531   -1.5422   30.2653 C   0  0  0  0  0  0  0  0  0  0  0  0
   -0.8524   -2.6567   31.5924 S   0  0  0  0  0  0  0  0  0  0  0  0
   -0.2893   -1.9510   32.7182 O   0  0  0  0  0  0  0  0  0  0  0  0
   -2.0692   -3.4362   31.6901 O   0  0  0  0  0  0  0  0  0  0  0  0
    0.2917   -3.7030   30.9304 N   0  0  0  0  0  0  0  0  0  0  0  0
    1.5079   -3.9854   31.7147 C   0  0  0  0  0  0  0  0  0  0  0  0
    1.9058   -5.4472   31.5266 C   0  0  0  0  0  0  0  0  0  0  0  0
    0.9138   -6.3290   32.2312 C   0  0  0  0  0  0  0  0  0  0  0  0
    0.9661   -6.3202   33.5754 N   0  0  0  0  0  0  0  0  0  0  0  0
   -0.0456   -6.9203   34.2175 C   0  0  0  0  0  0  0  0  0  0  0  0
   -1.0689   -7.5550   33.5657 C   0  0  0  0  0  0  0  0  0  0  0  0
   -0.9800   -7.5797   32.1967 C   0  0  0  0  0  0  0  0  0  0  0  0
   -1.8978   -8.2711   31.4523 O   0  0  0  0  0  0  0  0  0  0  0  0
   -0.0300   -6.9475   31.4943 N   0  0  0  0  0  0  0  0  0  0  0  0
   -0.8561   -0.1913   30.4204 C   0  0  0  0  0  0  0  0  0  0  0  0
   -1.0553    0.6922   29.4125 N   0  0  0  0  0  0  0  0  0  0  0  0
   -0.5546    1.8859   26.6224 N   0  0  0  0  0  0  0  0  0  0  0  0
    3.3438    3.7777   27.1223 N   0  0  0  0  0  0  0  0  0  0  0  0
  1  2  1  0
  2  3  2  0
  3  4  1  0
  4  5  2  0
  5  6  1  0
  6  7  1  0
  7  8  1  0
  8  9  2  0
 10  8  1  1
 10 11  1  0
 11 12  1  0
 12 13  1  0
 13 14  1  1
 14 15  2  0
 15 16  1  0
 16 17  2  0
 17 18  1  0
 18 19  2  0
 18 20  2  0
 18 21  1  0
 21 22  1  0
 22 23  1  0
 23 24  1  0
 24 25  2  0
 25 26  1  0
 26 27  2  0
 27 28  1  0
 28 29  1  0
 28 30  2  0
 17 31  1  0
 31 32  2  0
 13 33  1  0
  6 34  2  0
 34  2  1  0
 33 10  1  0
 32 14  1  0
 30 24  1  0
M  END
>  <tags>  (30) 
{'openbind_d68ev3c_c1_fragmenstein', 'fragmenstein_placed'}

>  <fragmenstein_mode>  (30) 
expansion

>  <smiles>  (30) 
C203-P53

>  <alias>  (30) 
Cc1cccc(NC(=O)[C@@H]2CC[C@H](c3ccc(S(=O)(=O)NCCc4nccc(O)n4)cn3)N2)n1

>  <fragmenstein_runtime>  (30) 
7.691701

>  <inchikey>  (30) 
ZGSHRYFGYGGLDJ-UHFFFAOYSA-N

>  <HIPPO Compound ID>  (30) 
841

>  <scratch_subdir>  (30) 
/opt/xchem-fragalysis-2/maxwin/BulkDock/SCRATCH/505733/C203-P53

>  <fragmenstein_outcome>  (30) 
acceptable

>  <fragmenstein_error>  (30) 


>  <ref_pdb>  (30) 
50

>  <HIPPO Pose ID>  (30) 
508

>  <Energy>  (30) 
-44.078574

$$$$
Cc1cccc(NC(=O)[C@@H]2CC[C@]3(CC[C@H](S(=O)(=O)NCCc4nccc(O)n4)CN3)N2)n1
     RDKit          3D

 33 36  0  0  0  0  0  0  0  0999 V2000
    5.7524    3.6368   27.6020 C   0  0  0  0  0  0  0  0  0  0  0  0
    4.5502    4.3427   27.0543 C   0  0  0  0  0  0  0  0  0  0  0  0
    4.6650    5.6272   26.5348 C   0  0  0  0  0  0  0  0  0  0  0  0
    3.5285    6.2439   26.0240 C   0  0  0  0  0  0  0  0  0  0  0  0
    2.3185    5.5593   26.0351 C   0  0  0  0  0  0  0  0  0  0  0  0
    2.2922    4.2789   26.5610 C   0  0  0  0  0  0  0  0  0  0  0  0
    1.1426    3.5262   26.5767 N   0  0  0  0  0  0  0  0  0  0  0  0
   -0.2734    3.8394   26.0292 C   0  0  0  0  0  0  0  0  0  0  0  0
   -0.7008    4.8150   25.5497 O   0  0  0  0  0  0  0  0  0  0  0  0
   -1.1247    2.5727   26.2860 C   0  0  2  0  0  0  0  0  0  0  0  0
   -2.1854    2.8138   27.3376 C   0  0  0  0  0  0  0  0  0  0  0  0
   -2.3745    1.4244   27.8987 C   0  0  0  0  0  0  0  0  0  0  0  0
   -0.9751    0.8301   27.9374 C   0  0  1  0  0  0  0  0  0  0  0  0
   -0.1413    1.1771   29.1943 C   0  0  0  0  0  0  0  0  0  0  0  0
   -0.1212    0.0886   30.2812 C   0  0  0  0  0  0  0  0  0  0  0  0
   -1.3081   -0.8572   30.1783 C   0  0  2  0  0  0  0  0  0  0  0  0
   -1.2892   -2.1218   31.4759 S   0  0  0  0  0  0  0  0  0  0  0  0
   -1.2959   -1.4293   32.7483 O   0  0  0  0  0  0  0  0  0  0  0  0
   -2.2989   -3.1255   31.2167 O   0  0  0  0  0  0  0  0  0  0  0  0
    0.2046   -2.8783   31.3980 N   0  0  0  0  0  0  0  0  0  0  0  0
    0.4880   -3.8358   30.3021 C   0  0  0  0  0  0  0  0  0  0  0  0
    1.3928   -4.9771   30.7648 C   0  0  0  0  0  0  0  0  0  0  0  0
    0.6118   -5.9355   31.6157 C   0  0  0  0  0  0  0  0  0  0  0  0
    0.3952   -5.5725   32.8952 N   0  0  0  0  0  0  0  0  0  0  0  0
   -0.4441   -6.3471   33.6067 C   0  0  0  0  0  0  0  0  0  0  0  0
   -1.0557   -7.4569   33.0873 C   0  0  0  0  0  0  0  0  0  0  0  0
   -0.7258   -7.7456   31.7925 C   0  0  0  0  0  0  0  0  0  0  0  0
   -1.2306   -8.8478   31.1814 O   0  0  0  0  0  0  0  0  0  0  0  0
    0.0981   -7.0290   31.0230 N   0  0  0  0  0  0  0  0  0  0  0  0
   -1.4639   -1.4281   28.7667 C   0  0  0  0  0  0  0  0  0  0  0  0
   -0.9150   -0.5879   27.6918 N   0  0  0  0  0  0  0  0  0  0  0  0
   -0.2998    1.4452   26.8122 N   0  0  0  0  0  0  0  0  0  0  0  0
    3.3787    3.6694   27.0788 N   0  0  0  0  0  0  0  0  0  0  0  0
  1  2  1  0
  2  3  2  0
  3  4  1  0
  4  5  2  0
  5  6  1  0
  6  7  1  0
  7  8  1  0
  8  9  2  0
 10  8  1  1
 10 11  1  0
 11 12  1  0
 13 12  1  1
 13 14  1  0
 14 15  1  0
 15 16  1  0
 16 17  1  1
 17 18  2  0
 17 19  2  0
 17 20  1  0
 20 21  1  0
 21 22  1  0
 22 23  1  0
 23 24  2  0
 24 25  1  0
 25 26  2  0
 26 27  1  0
 27 28  1  0
 27 29  2  0
 16 30  1  0
 30 31  1  0
 13 32  1  0
  6 33  2  0
 33  2  1  0
 32 10  1  0
 31 13  1  0
 29 23  1  0
M  END
>  <tags>  (31) 
{'openbind_d68ev3c_c1_fragmenstein', 'fragmenstein_placed'}

>  <fragmenstein_mode>  (31) 
expansion

>  <smiles>  (31) 
C243-P53

>  <alias>  (31) 
Cc1cccc(NC(=O)[C@@H]2CC[C@]3(CC[C@H](S(=O)(=O)NCCc4nccc(O)n4)CN3)N2)n1

>  <fragmenstein_runtime>  (31) 
6.299905

>  <inchikey>  (31) 
GINQBQFQOUDQDN-UHFFFAOYSA-N

>  <HIPPO Compound ID>  (31) 
243

>  <scratch_subdir>  (31) 
/opt/xchem-fragalysis-2/maxwin/BulkDock/SCRATCH/505733/C243-P53

>  <fragmenstein_outcome>  (31) 
acceptable

>  <fragmenstein_error>  (31) 


>  <ref_pdb>  (31) 
50

>  <HIPPO Pose ID>  (31) 
509

>  <Energy>  (31) 
-134.989258

$$$$
CCCC(=O)NCc1nc2c(I)cccc2[nH]1
     RDKit          3D

 17 18  0  0  0  0  0  0  0  0999 V2000
   15.7160    4.0380   19.7026 C   0  0  0  0  0  0  0  0  0  0  0  0
   17.0033    4.1956   18.9055 C   0  0  0  0  0  0  0  0  0  0  0  0
   17.1383    3.2447   17.7208 C   0  0  0  0  0  0  0  0  0  0  0  0
   16.0560    3.5066   16.6835 C   0  0  0  0  0  0  0  0  0  0  0  0
   16.1568    4.3201   15.8552 O   0  0  0  0  0  0  0  0  0  0  0  0
   14.8691    2.5886   17.0446 N   0  0  0  0  0  0  0  0  0  0  0  0
   13.6060    2.4158   16.4085 C   0  0  0  0  0  0  0  0  0  0  0  0
   13.2972    0.9641   16.3466 C   0  0  0  0  0  0  0  0  0  0  0  0
   13.9082   -0.0357   16.9603 N   0  0  0  0  0  0  0  0  0  0  0  0
   13.2571   -1.1848   16.5548 C   0  0  0  0  0  0  0  0  0  0  0  0
   13.4751   -2.5447   16.8494 C   0  0  0  0  0  0  0  0  0  0  0  0
   15.0520   -3.1860   18.0244 I   0  0  0  0  0  0  0  0  0  0  0  0
   12.5991   -3.5004   16.3207 C   0  0  0  0  0  0  0  0  0  0  0  0
   11.5446   -3.1180   15.4928 C   0  0  0  0  0  0  0  0  0  0  0  0
   11.3146   -1.7814   15.1828 C   0  0  0  0  0  0  0  0  0  0  0  0
   12.1934   -0.8518   15.7223 C   0  0  0  0  0  0  0  0  0  0  0  0
   12.2576    0.5057   15.5840 N   0  0  0  0  0  0  0  0  0  0  0  0
  1  2  1  0
  2  3  1  0
  3  4  1  0
  4  5  2  0
  4  6  1  0
  6  7  1  0
  7  8  1  0
  8  9  2  0
  9 10  1  0
 10 11  2  0
 11 12  1  0
 11 13  1  0
 13 14  2  0
 14 15  1  0
 15 16  2  0
 16 17  1  0
 17  8  1  0
 16 10  1  0
M  END
>  <tags>  (32) 
{'openbind_d68ev3c_c1_fragmenstein', 'fragmenstein_placed'}

>  <fragmenstein_mode>  (32) 
expansion

>  <smiles>  (32) 
C483-P55

>  <alias>  (32) 
CCCC(=O)NCc1nc2c(I)cccc2[nH]1

>  <fragmenstein_runtime>  (32) 
1.541083

>  <inchikey>  (32) 
QFATZQFTNFHUFK-UHFFFAOYSA-N

>  <HIPPO Compound ID>  (32) 
483

>  <scratch_subdir>  (32) 
/opt/xchem-fragalysis-2/maxwin/BulkDock/SCRATCH/505733/C483-P55

>  <fragmenstein_outcome>  (32) 
acceptable

>  <fragmenstein_error>  (32) 


>  <ref_pdb>  (32) 
50

>  <HIPPO Pose ID>  (32) 
528

>  <Energy>  (32) 
15.459962

$$$$
Cc1ccc(F)cc1-c1ccc2cnccc2c1C(O)(O)F
     RDKit          3D

 22 24  0  0  0  0  0  0  0  0999 V2000
    3.2910   -3.9555   34.5055 C   0  0  0  0  0  0  0  0  0  0  0  0
    2.2627   -3.7103   35.5769 C   0  0  0  0  0  0  0  0  0  0  0  0
    2.6801   -3.0632   36.7564 C   0  0  0  0  0  0  0  0  0  0  0  0
    1.8111   -2.8987   37.8313 C   0  0  0  0  0  0  0  0  0  0  0  0
    0.5055   -3.3391   37.7161 C   0  0  0  0  0  0  0  0  0  0  0  0
   -0.3151   -3.2365   38.7719 F   0  0  0  0  0  0  0  0  0  0  0  0
    0.0462   -3.9010   36.5276 C   0  0  0  0  0  0  0  0  0  0  0  0
    0.9189   -4.1283   35.4415 C   0  0  0  0  0  0  0  0  0  0  0  0
    0.4245   -4.8468   34.2391 C   0  0  0  0  0  0  0  0  0  0  0  0
    0.4800   -4.2427   32.9748 C   0  0  0  0  0  0  0  0  0  0  0  0
    0.1159   -4.9444   31.8234 C   0  0  0  0  0  0  0  0  0  0  0  0
   -0.4671   -6.2165   31.9283 C   0  0  0  0  0  0  0  0  0  0  0  0
   -0.8714   -6.9595   30.8237 C   0  0  0  0  0  0  0  0  0  0  0  0
   -1.5573   -8.1254   30.8934 N   0  0  0  0  0  0  0  0  0  0  0  0
   -1.8464   -8.5959   32.1172 C   0  0  0  0  0  0  0  0  0  0  0  0
   -1.4412   -7.9726   33.2660 C   0  0  0  0  0  0  0  0  0  0  0  0
   -0.6704   -6.7938   33.1859 C   0  0  0  0  0  0  0  0  0  0  0  0
   -0.0596   -6.1772   34.3047 C   0  0  0  0  0  0  0  0  0  0  0  0
    0.2866   -7.0528   35.4715 C   0  0  0  0  0  0  0  0  0  0  0  0
   -0.4396   -6.7258   36.6138 O   0  0  0  0  0  0  0  0  0  0  0  0
    1.6755   -7.0988   35.6858 O   0  0  0  0  0  0  0  0  0  0  0  0
   -0.0269   -8.3557   35.2863 F   0  0  0  0  0  0  0  0  0  0  0  0
  1  2  1  0
  2  3  2  0
  3  4  1  0
  4  5  2  0
  5  6  1  0
  5  7  1  0
  7  8  2  0
  8  9  1  0
  9 10  2  0
 10 11  1  0
 11 12  2  0
 12 13  1  0
 13 14  2  0
 14 15  1  0
 15 16  2  0
 16 17  1  0
 17 18  2  0
 18 19  1  0
 19 20  1  0
 19 21  1  0
 19 22  1  0
  8  2  1  0
 18  9  1  0
 17 12  1  0
M  END
>  <tags>  (33) 
{'openbind_d68ev3c_c1_fragmenstein', 'fragmenstein_placed'}

>  <fragmenstein_mode>  (33) 
expansion

>  <smiles>  (33) 
C528-P56

>  <alias>  (33) 
Cc1ccc(F)cc1-c1ccc2cnccc2c1C(O)(O)F

>  <fragmenstein_runtime>  (33) 
1.691731

>  <inchikey>  (33) 
KPPATRVOAXYCOE-UHFFFAOYSA-N

>  <HIPPO Compound ID>  (33) 
528

>  <scratch_subdir>  (33) 
/opt/xchem-fragalysis-2/maxwin/BulkDock/SCRATCH/505733/C528-P56

>  <fragmenstein_outcome>  (33) 
acceptable

>  <fragmenstein_error>  (33) 


>  <ref_pdb>  (33) 
50

>  <HIPPO Pose ID>  (33) 
554

>  <Energy>  (33) 
10.960649

$$$$
COC(=O)CNC1=N[S@H](NCCc2nccc(O)n2)[C@H]2[C@H](C)[C@@H](N)N[C@H]12
     RDKit          3D

 26 28  0  0  0  0  0  0  0  0999 V2000
   -7.0905   -0.0308   35.1006 C   0  0  0  0  0  0  0  0  0  0  0  0
   -6.0174   -0.9593   34.9258 O   0  0  0  0  0  0  0  0  0  0  0  0
   -5.0373   -0.5312   34.0825 C   0  0  0  0  0  0  0  0  0  0  0  0
   -4.9783    0.5688   33.5362 O   0  0  0  0  0  0  0  0  0  0  0  0
   -4.0117   -1.6305   33.8546 C   0  0  0  0  0  0  0  0  0  0  0  0
   -3.0505   -1.1722   32.8758 N   0  0  0  0  0  0  0  0  0  0  0  0
   -2.2488   -1.9890   32.1441 C   0  0  0  0  0  0  0  0  0  0  0  0
   -1.8713   -3.2106   32.3912 N   0  0  0  0  0  0  0  0  0  0  0  0
   -0.6500   -3.6516   31.3688 S   0  0  2  0  0  4  0  0  0  0  0  0
    0.5399   -4.1935   32.4401 N   0  0  0  0  0  0  0  0  0  0  0  0
    0.4372   -5.4753   33.1659 C   0  0  0  0  0  0  0  0  0  0  0  0
    0.0257   -5.3677   34.6511 C   0  0  0  0  0  0  0  0  0  0  0  0
    0.5676   -6.4766   35.5401 C   0  0  0  0  0  0  0  0  0  0  0  0
    1.5344   -7.2938   35.0603 N   0  0  0  0  0  0  0  0  0  0  0  0
    2.0972   -8.1481   35.9372 C   0  0  0  0  0  0  0  0  0  0  0  0
    1.7404   -8.2350   37.2569 C   0  0  0  0  0  0  0  0  0  0  0  0
    0.7483   -7.3722   37.6414 C   0  0  0  0  0  0  0  0  0  0  0  0
    0.3216   -7.3465   38.9393 O   0  0  0  0  0  0  0  0  0  0  0  0
    0.1476   -6.4943   36.8218 N   0  0  0  0  0  0  0  0  0  0  0  0
   -0.3662   -2.0380   30.7402 C   0  0  2  0  0  0  0  0  0  0  0  0
   -1.7779   -1.5071   30.8166 C   0  0  2  0  0  0  0  0  0  0  0  0
   -1.6550   -0.0920   30.5088 N   0  0  0  0  0  0  0  0  0  0  0  0
   -0.7496   -0.1534   29.3574 C   0  0  2  0  0  0  0  0  0  0  0  0
   -1.5956    0.1461   28.2369 N   0  0  0  0  0  0  0  0  0  0  0  0
   -0.1588   -1.6057   29.3040 C   0  0  1  0  0  0  0  0  0  0  0  0
    1.2635   -1.5837   28.7960 C   0  0  0  0  0  0  0  0  0  0  0  0
  1  2  1  0
  2  3  1  0
  3  4  2  0
  3  5  1  0
  5  6  1  0
  6  7  1  0
  7  8  2  0
  8  9  1  0
  9 10  1  1
 10 11  1  0
 11 12  1  0
 12 13  1  0
 13 14  2  0
 14 15  1  0
 15 16  2  0
 16 17  1  0
 17 18  1  0
 17 19  2  0
 20  9  1  6
 20 21  1  0
 21 22  1  1
 22 23  1  0
 23 24  1  6
 23 25  1  0
 25 26  1  1
 21  7  1  0
 19 13  1  0
 25 20  1  0
M  END
>  <tags>  (34) 
{'openbind_d68ev3c_c1_fragmenstein', 'fragmenstein_placed'}

>  <fragmenstein_mode>  (34) 
expansion

>  <smiles>  (34) 
C604-P59

>  <alias>  (34) 
COC(=O)CNC1=N[S@H](NCCc2nccc(O)n2)[C@H]2[C@H](C)[C@@H](N)N[C@H]12

>  <fragmenstein_runtime>  (34) 
3.401469

>  <inchikey>  (34) 
WFENYVKBPQAOOK-UHFFFAOYSA-N

>  <HIPPO Compound ID>  (34) 
604

>  <scratch_subdir>  (34) 
/opt/xchem-fragalysis-2/maxwin/BulkDock/SCRATCH/505733/C604-P59

>  <fragmenstein_outcome>  (34) 
acceptable

>  <fragmenstein_error>  (34) 


>  <ref_pdb>  (34) 
50

>  <HIPPO Pose ID>  (34) 
608

>  <Energy>  (34) 
-48.124167

$$$$
CCCC(=O)NCc1nc2cccc(NC(=O)[C@@H]3COCCO3)n2n1
     RDKit          3D

 25 27  0  0  0  0  0  0  0  0999 V2000
   15.4953    6.8671   13.6940 C   0  0  0  0  0  0  0  0  0  0  0  0
   14.0159    6.8126   14.0489 C   0  0  0  0  0  0  0  0  0  0  0  0
   13.5519    5.4039   14.4187 C   0  0  0  0  0  0  0  0  0  0  0  0
   14.0057    4.9402   15.8088 C   0  0  0  0  0  0  0  0  0  0  0  0
   14.5899    5.6806   16.5416 O   0  0  0  0  0  0  0  0  0  0  0  0
   13.5790    3.5879   15.9934 N   0  0  0  0  0  0  0  0  0  0  0  0
   13.8009    2.6660   17.0791 C   0  0  0  0  0  0  0  0  0  0  0  0
   13.4156    1.2861   16.6509 C   0  0  0  0  0  0  0  0  0  0  0  0
   12.7077    1.0511   15.4921 N   0  0  0  0  0  0  0  0  0  0  0  0
   12.5861   -0.2572   15.4745 C   0  0  0  0  0  0  0  0  0  0  0  0
   11.9432   -1.1432   14.5704 C   0  0  0  0  0  0  0  0  0  0  0  0
   11.9621   -2.4671   14.8115 C   0  0  0  0  0  0  0  0  0  0  0  0
   12.6216   -3.0226   15.9844 C   0  0  0  0  0  0  0  0  0  0  0  0
   13.2274   -2.1976   16.8590 C   0  0  0  0  0  0  0  0  0  0  0  0
   13.7786   -2.6152   18.0417 N   0  0  0  0  0  0  0  0  0  0  0  0
   14.0317   -3.9472   18.5556 C   0  0  0  0  0  0  0  0  0  0  0  0
   13.8958   -5.0227   18.0423 O   0  0  0  0  0  0  0  0  0  0  0  0
   14.4482   -3.8486   20.0465 C   0  0  2  0  0  0  0  0  0  0  0  0
   15.9413   -3.5276   20.1411 C   0  0  0  0  0  0  0  0  0  0  0  0
   16.3503   -3.2669   21.4932 O   0  0  0  0  0  0  0  0  0  0  0  0
   15.5484   -3.9646   22.4600 C   0  0  0  0  0  0  0  0  0  0  0  0
   14.9788   -5.2673   21.8993 C   0  0  0  0  0  0  0  0  0  0  0  0
   14.1230   -5.0481   20.7701 O   0  0  0  0  0  0  0  0  0  0  0  0
   13.2080   -0.8120   16.5940 N   0  0  0  0  0  0  0  0  0  0  0  0
   13.7154    0.1935   17.3651 N   0  0  0  0  0  0  0  0  0  0  0  0
  1  2  1  0
  2  3  1  0
  3  4  1  0
  4  5  2  0
  4  6  1  0
  6  7  1  0
  7  8  1  0
  8  9  1  0
  9 10  2  0
 10 11  1  0
 11 12  2  0
 12 13  1  0
 13 14  2  0
 14 15  1  0
 15 16  1  0
 16 17  2  0
 18 16  1  6
 18 19  1  0
 19 20  1  0
 20 21  1  0
 21 22  1  0
 22 23  1  0
 14 24  1  0
 24 25  1  0
 25  8  2  0
 24 10  1  0
 23 18  1  0
M  END
>  <tags>  (35) 
{'openbind_d68ev3c_c1_fragmenstein', 'fragmenstein_placed'}

>  <fragmenstein_mode>  (35) 
expansion

>  <smiles>  (35) 
C620-P60

>  <alias>  (35) 
CCCC(=O)NCc1nc2cccc(NC(=O)[C@@H]3COCCO3)n2n1

>  <fragmenstein_runtime>  (35) 
3.334433

>  <inchikey>  (35) 
IMUHHYAGOXNMDH-UHFFFAOYSA-N

>  <HIPPO Compound ID>  (35) 
754

>  <scratch_subdir>  (35) 
/opt/xchem-fragalysis-2/maxwin/BulkDock/SCRATCH/505733/C620-P60

>  <fragmenstein_outcome>  (35) 
acceptable

>  <fragmenstein_error>  (35) 


>  <ref_pdb>  (35) 
50

>  <HIPPO Pose ID>  (35) 
616

>  <Energy>  (35) 
134.485629

$$$$
Cc1cccc(NC(=O)[C@H]2COCCO2)c1C(=O)O
     RDKit          3D

 19 20  0  0  0  0  0  0  0  0999 V2000
   12.3600    1.2214   15.2328 C   0  0  0  0  0  0  0  0  0  0  0  0
   12.4649   -0.2450   15.5502 C   0  0  0  0  0  0  0  0  0  0  0  0
   11.7836   -1.1448   14.7143 C   0  0  0  0  0  0  0  0  0  0  0  0
   11.8208   -2.5154   14.9533 C   0  0  0  0  0  0  0  0  0  0  0  0
   12.5336   -3.0144   16.0396 C   0  0  0  0  0  0  0  0  0  0  0  0
   13.2139   -2.1455   16.8975 C   0  0  0  0  0  0  0  0  0  0  0  0
   13.8022   -2.6666   18.0554 N   0  0  0  0  0  0  0  0  0  0  0  0
   14.2093   -4.1236   18.4127 C   0  0  0  0  0  0  0  0  0  0  0  0
   14.1863   -5.0975   17.7648 O   0  0  0  0  0  0  0  0  0  0  0  0
   14.5960   -4.2041   19.9021 C   0  0  1  0  0  0  0  0  0  0  0  0
   15.7004   -3.2472   20.3424 C   0  0  0  0  0  0  0  0  0  0  0  0
   16.0177   -3.4798   21.7278 O   0  0  0  0  0  0  0  0  0  0  0  0
   14.8407   -3.2982   22.5364 C   0  0  0  0  0  0  0  0  0  0  0  0
   13.7296   -4.2451   22.0878 C   0  0  0  0  0  0  0  0  0  0  0  0
   13.4222   -4.0361   20.7044 O   0  0  0  0  0  0  0  0  0  0  0  0
   13.2128   -0.7558   16.6363 C   0  0  0  0  0  0  0  0  0  0  0  0
   14.0129    0.1184   17.5367 C   0  0  0  0  0  0  0  0  0  0  0  0
   14.2281   -0.0969   18.7177 O   0  0  0  0  0  0  0  0  0  0  0  0
   14.5695    1.1705   16.9159 O   0  0  0  0  0  0  0  0  0  0  0  0
  1  2  1  0
  2  3  2  0
  3  4  1  0
  4  5  2  0
  5  6  1  0
  6  7  1  0
  7  8  1  0
  8  9  2  0
 10  8  1  6
 10 11  1  0
 11 12  1  0
 12 13  1  0
 13 14  1  0
 14 15  1  0
  6 16  2  0
 16 17  1  0
 17 18  2  0
 17 19  1  0
 16  2  1  0
 15 10  1  0
M  END
>  <tags>  (36) 
{'openbind_d68ev3c_c1_fragmenstein', 'fragmenstein_placed'}

>  <fragmenstein_mode>  (36) 
expansion

>  <smiles>  (36) 
C622-P60

>  <alias>  (36) 
Cc1cccc(NC(=O)[C@H]2COCCO2)c1C(=O)O

>  <fragmenstein_runtime>  (36) 
1.208083

>  <inchikey>  (36) 
WOGARWOKNORZLW-UHFFFAOYSA-N

>  <HIPPO Compound ID>  (36) 
1330

>  <scratch_subdir>  (36) 
/opt/xchem-fragalysis-2/maxwin/BulkDock/SCRATCH/505733/C622-P60

>  <fragmenstein_outcome>  (36) 
acceptable

>  <fragmenstein_error>  (36) 


>  <ref_pdb>  (36) 
50

>  <HIPPO Pose ID>  (36) 
617

>  <Energy>  (36) 
111.039684

$$$$
Cc1ccc(NC(=O)[C@@H]2COCCO2)c(CNC(C)(C)CO)c1
     RDKit          3D

 23 24  0  0  0  0  0  0  0  0999 V2000
   11.0727    0.0753   14.0221 C   0  0  0  0  0  0  0  0  0  0  0  0
   11.8969   -0.7488   14.9611 C   0  0  0  0  0  0  0  0  0  0  0  0
   11.6281   -2.1049   15.1762 C   0  0  0  0  0  0  0  0  0  0  0  0
   12.3335   -2.8129   16.1538 C   0  0  0  0  0  0  0  0  0  0  0  0
   13.3041   -2.1578   16.9168 C   0  0  0  0  0  0  0  0  0  0  0  0
   13.7200   -2.7006   18.1241 N   0  0  0  0  0  0  0  0  0  0  0  0
   13.8094   -4.1768   18.5857 C   0  0  0  0  0  0  0  0  0  0  0  0
   13.6208   -5.1648   17.9967 O   0  0  0  0  0  0  0  0  0  0  0  0
   14.1140   -4.1201   20.1023 C   0  0  2  0  0  0  0  0  0  0  0  0
   15.5922   -3.8172   20.3426 C   0  0  0  0  0  0  0  0  0  0  0  0
   15.8539   -3.5176   21.7233 O   0  0  0  0  0  0  0  0  0  0  0  0
   14.9204   -4.1492   22.6151 C   0  0  0  0  0  0  0  0  0  0  0  0
   14.3908   -5.4687   22.0499 C   0  0  0  0  0  0  0  0  0  0  0  0
   13.7082   -5.3062   20.7986 O   0  0  0  0  0  0  0  0  0  0  0  0
   13.7102   -0.8639   16.5857 C   0  0  0  0  0  0  0  0  0  0  0  0
   14.9507   -0.2430   17.1783 C   0  0  0  0  0  0  0  0  0  0  0  0
   16.0191   -0.0127   16.2053 N   0  0  0  0  0  0  0  0  0  0  0  0
   16.8782   -1.1461   15.7841 C   0  0  0  0  0  0  0  0  0  0  0  0
   18.0499   -0.4825   15.0237 C   0  0  0  0  0  0  0  0  0  0  0  0
   17.4757   -1.8982   16.9871 C   0  0  0  0  0  0  0  0  0  0  0  0
   16.1737   -2.1566   14.8283 C   0  0  0  0  0  0  0  0  0  0  0  0
   17.0983   -3.0876   14.2656 O   0  0  0  0  0  0  0  0  0  0  0  0
   12.9767   -0.1584   15.6220 C   0  0  0  0  0  0  0  0  0  0  0  0
  1  2  1  0
  2  3  2  0
  3  4  1  0
  4  5  2  0
  5  6  1  0
  6  7  1  0
  7  8  2  0
  9  7  1  6
  9 10  1  0
 10 11  1  0
 11 12  1  0
 12 13  1  0
 13 14  1  0
  5 15  1  0
 15 16  1  0
 16 17  1  0
 17 18  1  0
 18 19  1  0
 18 20  1  0
 18 21  1  0
 21 22  1  0
 15 23  2  0
 23  2  1  0
 14  9  1  0
M  END
>  <tags>  (37) 
{'openbind_d68ev3c_c1_fragmenstein', 'fragmenstein_placed'}

>  <fragmenstein_mode>  (37) 
expansion

>  <smiles>  (37) 
C624-P60

>  <alias>  (37) 
Cc1ccc(NC(=O)[C@@H]2COCCO2)c(CNC(C)(C)CO)c1

>  <fragmenstein_runtime>  (37) 
1.660817

>  <inchikey>  (37) 
AIJDEGVAPDMJJG-UHFFFAOYSA-N

>  <HIPPO Compound ID>  (37) 
624

>  <scratch_subdir>  (37) 
/opt/xchem-fragalysis-2/maxwin/BulkDock/SCRATCH/505733/C624-P60

>  <fragmenstein_outcome>  (37) 
acceptable

>  <fragmenstein_error>  (37) 


>  <ref_pdb>  (37) 
50

>  <HIPPO Pose ID>  (37) 
619

>  <Energy>  (37) 
150.491439

$$$$
CN1[C@@H](CO)N[C@H]2CCC[C@@H](NC(=O)[C@H]3COCCO3)N21
     RDKit          3D

 21 23  0  0  0  0  0  0  0  0999 V2000
   15.2810   -0.1286   18.0748 C   0  0  0  0  0  0  0  0  0  0  0  0
   14.8618   -0.9476   16.9407 N   0  0  0  0  0  0  0  0  0  0  0  0
   15.3206   -0.3765   15.6752 C   0  0  1  0  0  0  0  0  0  0  0  0
   16.5285   -1.1511   15.1110 C   0  0  0  0  0  0  0  0  0  0  0  0
   16.8394   -0.6930   13.7887 O   0  0  0  0  0  0  0  0  0  0  0  0
   14.1852   -0.4545   14.7562 N   0  0  0  0  0  0  0  0  0  0  0  0
   13.0157   -0.3719   15.6167 C   0  0  1  0  0  0  0  0  0  0  0  0
   11.7984   -0.9977   14.9245 C   0  0  0  0  0  0  0  0  0  0  0  0
   11.9708   -2.4955   14.6649 C   0  0  0  0  0  0  0  0  0  0  0  0
   12.8895   -3.1556   15.6925 C   0  0  0  0  0  0  0  0  0  0  0  0
   12.9061   -2.3853   16.9909 C   0  0  1  0  0  0  0  0  0  0  0  0
   13.4863   -3.1247   18.0796 N   0  0  0  0  0  0  0  0  0  0  0  0
   14.8138   -3.9190   18.1618 C   0  0  0  0  0  0  0  0  0  0  0  0
   15.6038   -4.1599   17.3363 O   0  0  0  0  0  0  0  0  0  0  0  0
   14.9789   -4.3422   19.6381 C   0  0  1  0  0  0  0  0  0  0  0  0
   15.7944   -3.2628   20.3524 C   0  0  0  0  0  0  0  0  0  0  0  0
   15.9795   -3.5935   21.7381 O   0  0  0  0  0  0  0  0  0  0  0  0
   14.7038   -3.7355   22.3775 C   0  0  0  0  0  0  0  0  0  0  0  0
   13.8924   -4.8250   21.6826 C   0  0  0  0  0  0  0  0  0  0  0  0
   13.7071   -4.5227   20.2922 O   0  0  0  0  0  0  0  0  0  0  0  0
   13.3941   -0.9934   16.9004 N   0  0  0  0  0  0  0  0  0  0  0  0
  1  2  1  0
  2  3  1  0
  3  4  1  6
  4  5  1  0
  3  6  1  0
  6  7  1  0
  7  8  1  6
  8  9  1  0
  9 10  1  0
 10 11  1  0
 11 12  1  1
 12 13  1  0
 13 14  2  0
 15 13  1  6
 15 16  1  0
 16 17  1  0
 17 18  1  0
 18 19  1  0
 19 20  1  0
 11 21  1  0
 21  2  1  0
 21  7  1  0
 20 15  1  0
M  END
>  <tags>  (38) 
{'openbind_d68ev3c_c1_fragmenstein', 'fragmenstein_placed'}

>  <fragmenstein_mode>  (38) 
expansion

>  <smiles>  (38) 
C629-P60

>  <alias>  (38) 
CN1[C@@H](CO)N[C@H]2CCC[C@@H](NC(=O)[C@H]3COCCO3)N21

>  <fragmenstein_runtime>  (38) 
1.670037

>  <inchikey>  (38) 
FXZBYDNKISGMQQ-UHFFFAOYSA-N

>  <HIPPO Compound ID>  (38) 
629

>  <scratch_subdir>  (38) 
/opt/xchem-fragalysis-2/maxwin/BulkDock/SCRATCH/505733/C629-P60

>  <fragmenstein_outcome>  (38) 
acceptable

>  <fragmenstein_error>  (38) 


>  <ref_pdb>  (38) 
50

>  <HIPPO Pose ID>  (38) 
622

>  <Energy>  (38) 
82.994808

$$$$
CS(=O)(=O)C[C@@H](O)c1cccc(NC(=O)[C@H]2COCCO2)n1
     RDKit          3D

 22 23  0  0  0  0  0  0  0  0999 V2000
   15.5685    0.4573   18.8564 C   0  0  0  0  0  0  0  0  0  0  0  0
   15.4473    1.3081   17.2975 S   0  0  0  0  0  0  0  0  0  0  0  0
   15.7856    0.3772   16.2375 O   0  0  0  0  0  0  0  0  0  0  0  0
   16.2169    2.5317   17.4458 O   0  0  0  0  0  0  0  0  0  0  0  0
   13.7287    1.7850   17.1458 C   0  0  0  0  0  0  0  0  0  0  0  0
   12.9970    1.1674   15.9511 C   0  0  1  0  0  0  0  0  0  0  0  0
   13.6391    1.5403   14.7287 O   0  0  0  0  0  0  0  0  0  0  0  0
   12.7748   -0.3322   16.0197 C   0  0  0  0  0  0  0  0  0  0  0  0
   12.1888   -1.0195   14.9583 C   0  0  0  0  0  0  0  0  0  0  0  0
   12.1071   -2.4071   15.0235 C   0  0  0  0  0  0  0  0  0  0  0  0
   12.6416   -3.0703   16.1245 C   0  0  0  0  0  0  0  0  0  0  0  0
   13.1667   -2.3107   17.1539 C   0  0  0  0  0  0  0  0  0  0  0  0
   13.6686   -2.8832   18.3022 N   0  0  0  0  0  0  0  0  0  0  0  0
   14.1786   -4.3110   18.5671 C   0  0  0  0  0  0  0  0  0  0  0  0
   14.3270   -5.2064   17.8384 O   0  0  0  0  0  0  0  0  0  0  0  0
   14.5130   -4.4371   20.0604 C   0  0  1  0  0  0  0  0  0  0  0  0
   15.7051   -3.5656   20.4564 C   0  0  0  0  0  0  0  0  0  0  0  0
   15.9790   -3.7021   21.8602 O   0  0  0  0  0  0  0  0  0  0  0  0
   14.8127   -3.3747   22.6341 C   0  0  0  0  0  0  0  0  0  0  0  0
   13.6377   -4.2618   22.2321 C   0  0  0  0  0  0  0  0  0  0  0  0
   13.3582   -4.1033   20.8359 O   0  0  0  0  0  0  0  0  0  0  0  0
   13.1864   -0.9631   17.1429 N   0  0  0  0  0  0  0  0  0  0  0  0
  1  2  1  0
  2  3  2  0
  2  4  2  0
  2  5  1  0
  5  6  1  0
  6  7  1  6
  6  8  1  0
  8  9  2  0
  9 10  1  0
 10 11  2  0
 11 12  1  0
 12 13  1  0
 13 14  1  0
 14 15  2  0
 16 14  1  6
 16 17  1  0
 17 18  1  0
 18 19  1  0
 19 20  1  0
 20 21  1  0
 12 22  2  0
 22  8  1  0
 21 16  1  0
M  END
>  <tags>  (39) 
{'openbind_d68ev3c_c1_fragmenstein', 'fragmenstein_placed'}

>  <fragmenstein_mode>  (39) 
expansion

>  <smiles>  (39) 
C631-P60

>  <alias>  (39) 
CS(=O)(=O)C[C@@H](O)c1cccc(NC(=O)[C@H]2COCCO2)n1

>  <fragmenstein_runtime>  (39) 
10.117976

>  <inchikey>  (39) 
FPOIQVPBSOEHCW-UHFFFAOYSA-N

>  <HIPPO Compound ID>  (39) 
729

>  <scratch_subdir>  (39) 
/opt/xchem-fragalysis-2/maxwin/BulkDock/SCRATCH/505733/C631-P60

>  <fragmenstein_outcome>  (39) 
acceptable

>  <fragmenstein_error>  (39) 


>  <ref_pdb>  (39) 
50

>  <HIPPO Pose ID>  (39) 
623

>  <Energy>  (39) 
67.703543

$$$$
O=C(Nc1ccccc1I)[C@@H]1COCCO1
     RDKit          3D

 16 17  0  0  0  0  0  0  0  0999 V2000
   13.6787   -5.1549   18.0536 O   0  0  0  0  0  0  0  0  0  0  0  0
   13.8282   -4.1161   18.5639 C   0  0  0  0  0  0  0  0  0  0  0  0
   13.6600   -2.6821   17.9934 N   0  0  0  0  0  0  0  0  0  0  0  0
   13.1992   -2.2520   16.7543 C   0  0  0  0  0  0  0  0  0  0  0  0
   12.3915   -3.0877   15.9829 C   0  0  0  0  0  0  0  0  0  0  0  0
   11.7551   -2.5844   14.8481 C   0  0  0  0  0  0  0  0  0  0  0  0
   11.9394   -1.2551   14.4722 C   0  0  0  0  0  0  0  0  0  0  0  0
   12.7812   -0.4283   15.2126 C   0  0  0  0  0  0  0  0  0  0  0  0
   13.4120   -0.9306   16.3504 C   0  0  0  0  0  0  0  0  0  0  0  0
   14.7434    0.2925   17.3861 I   0  0  0  0  0  0  0  0  0  0  0  0
   14.1512   -3.9523   20.0643 C   0  0  2  0  0  0  0  0  0  0  0  0
   15.6346   -3.6548   20.2622 C   0  0  0  0  0  0  0  0  0  0  0  0
   15.9332   -3.3182   21.6272 O   0  0  0  0  0  0  0  0  0  0  0  0
   15.0083   -3.9026   22.5600 C   0  0  0  0  0  0  0  0  0  0  0  0
   14.4531   -5.2352   22.0563 C   0  0  0  0  0  0  0  0  0  0  0  0
   13.7435   -5.1065   20.8179 O   0  0  0  0  0  0  0  0  0  0  0  0
  1  2  2  0
  2  3  1  0
  3  4  1  0
  4  5  2  0
  5  6  1  0
  6  7  2  0
  7  8  1  0
  8  9  2  0
  9 10  1  0
 11  2  1  6
 11 12  1  0
 12 13  1  0
 13 14  1  0
 14 15  1  0
 15 16  1  0
  9  4  1  0
 16 11  1  0
M  END
>  <tags>  (40) 
{'openbind_d68ev3c_c1_fragmenstein', 'fragmenstein_placed'}

>  <fragmenstein_mode>  (40) 
expansion

>  <smiles>  (40) 
C633-P60

>  <alias>  (40) 
O=C(Nc1ccccc1I)[C@@H]1COCCO1

>  <fragmenstein_runtime>  (40) 
1.513055

>  <inchikey>  (40) 
CMWGWJQLUUAIDS-UHFFFAOYSA-N

>  <HIPPO Compound ID>  (40) 
793

>  <scratch_subdir>  (40) 
/opt/xchem-fragalysis-2/maxwin/BulkDock/SCRATCH/505733/C633-P60

>  <fragmenstein_outcome>  (40) 
acceptable

>  <fragmenstein_error>  (40) 


>  <ref_pdb>  (40) 
50

>  <HIPPO Pose ID>  (40) 
624

>  <Energy>  (40) 
120.626639

$$$$
NS(=O)(=O)c1cc(O)ccc1N(c1cscn1)C(F)F
     RDKit          3D

 20 21  0  0  0  0  0  0  0  0999 V2000
   16.8427   -4.2509   17.8744 N   0  0  0  0  0  0  0  0  0  0  0  0
   15.3092   -3.6682   17.4669 S   0  0  0  0  0  0  0  0  0  0  0  0
   15.2067   -3.9349   16.0502 O   0  0  0  0  0  0  0  0  0  0  0  0
   14.4331   -4.2699   18.4492 O   0  0  0  0  0  0  0  0  0  0  0  0
   15.4721   -1.9214   17.7809 C   0  0  0  0  0  0  0  0  0  0  0  0
   15.9767   -1.5692   19.0435 C   0  0  0  0  0  0  0  0  0  0  0  0
   16.2539   -0.2413   19.3349 C   0  0  0  0  0  0  0  0  0  0  0  0
   16.7617    0.0408   20.5670 O   0  0  0  0  0  0  0  0  0  0  0  0
   16.0378    0.7543   18.3953 C   0  0  0  0  0  0  0  0  0  0  0  0
   15.5054    0.4109   17.1529 C   0  0  0  0  0  0  0  0  0  0  0  0
   15.1901   -0.9261   16.8205 C   0  0  0  0  0  0  0  0  0  0  0  0
   14.4872   -1.1225   15.6144 N   0  0  0  0  0  0  0  0  0  0  0  0
   13.2889   -1.7565   15.5328 C   0  0  0  0  0  0  0  0  0  0  0  0
   12.4443   -1.7999   14.4455 C   0  0  0  0  0  0  0  0  0  0  0  0
   11.2216   -2.9503   14.7415 S   0  0  0  0  0  0  0  0  0  0  0  0
   11.9261   -3.3077   16.2420 C   0  0  0  0  0  0  0  0  0  0  0  0
   12.8534   -2.4681   16.6254 N   0  0  0  0  0  0  0  0  0  0  0  0
   15.2443   -0.9215   14.3876 C   0  0  0  0  0  0  0  0  0  0  0  0
   14.6481    0.0618   13.6594 F   0  0  0  0  0  0  0  0  0  0  0  0
   16.5127   -0.4887   14.6231 F   0  0  0  0  0  0  0  0  0  0  0  0
  1  2  1  0
  2  3  2  0
  2  4  2  0
  2  5  1  0
  5  6  2  0
  6  7  1  0
  7  8  1  0
  7  9  2  0
  9 10  1  0
 10 11  2  0
 11 12  1  0
 12 13  1  0
 13 14  2  0
 14 15  1  0
 15 16  1  0
 16 17  2  0
 12 18  1  0
 18 19  1  0
 18 20  1  0
 11  5  1  0
 17 13  1  0
M  END
>  <tags>  (41) 
{'openbind_d68ev3c_c1_fragmenstein', 'fragmenstein_placed'}

>  <fragmenstein_mode>  (41) 
expansion

>  <smiles>  (41) 
C654-P61

>  <alias>  (41) 
NS(=O)(=O)c1cc(O)ccc1N(c1cscn1)C(F)F

>  <fragmenstein_runtime>  (41) 
2.414698

>  <inchikey>  (41) 
DWFJIPQLUTZMIQ-UHFFFAOYSA-N

>  <HIPPO Compound ID>  (41) 
654

>  <scratch_subdir>  (41) 
/opt/xchem-fragalysis-2/maxwin/BulkDock/SCRATCH/505733/C654-P61

>  <fragmenstein_outcome>  (41) 
acceptable

>  <fragmenstein_error>  (41) 


>  <ref_pdb>  (41) 
50

>  <HIPPO Pose ID>  (41) 
640

>  <Energy>  (41) 
-80.469553

$$$$
N[S@](=O)(=Nc1ccn[nH]1)c1ccccc1OC(F)F
     RDKit          3D

 19 20  0  0  0  0  0  0  0  0999 V2000
   15.8519   -4.4283   16.6903 N   0  0  0  0  0  0  0  0  0  0  0  0
   14.5946   -3.5408   17.3701 S   0  0  2  0  0  0  0  0  0  0  0  0
   14.3415   -4.2345   18.6107 O   0  0  0  0  0  0  0  0  0  0  0  0
   13.6549   -3.4839   16.1701 N   0  0  0  0  0  0  0  0  0  0  0  0
   12.5704   -2.5202   15.9953 C   0  0  0  0  0  0  0  0  0  0  0  0
   11.5523   -2.6312   15.0848 C   0  0  0  0  0  0  0  0  0  0  0  0
   10.8689   -1.4028   15.1660 C   0  0  0  0  0  0  0  0  0  0  0  0
   11.3979   -0.5721   16.0664 N   0  0  0  0  0  0  0  0  0  0  0  0
   12.4429   -1.2729   16.5341 N   0  0  0  0  0  0  0  0  0  0  0  0
   15.2488   -1.9263   17.7354 C   0  0  0  0  0  0  0  0  0  0  0  0
   15.2797   -1.5169   19.0745 C   0  0  0  0  0  0  0  0  0  0  0  0
   15.7206   -0.2357   19.3977 C   0  0  0  0  0  0  0  0  0  0  0  0
   16.1434    0.6287   18.3914 C   0  0  0  0  0  0  0  0  0  0  0  0
   16.1179    0.2214   17.0560 C   0  0  0  0  0  0  0  0  0  0  0  0
   15.6440   -1.0495   16.7098 C   0  0  0  0  0  0  0  0  0  0  0  0
   15.5336   -1.4734   15.4140 O   0  0  0  0  0  0  0  0  0  0  0  0
   15.3136   -0.4553   14.4473 C   0  0  0  0  0  0  0  0  0  0  0  0
   14.6469   -0.9963   13.4048 F   0  0  0  0  0  0  0  0  0  0  0  0
   16.5222   -0.0529   13.9913 F   0  0  0  0  0  0  0  0  0  0  0  0
  2  1  1  6
  2  3  2  0
  2  4  2  0
  4  5  1  0
  5  6  2  0
  6  7  1  0
  7  8  2  0
  8  9  1  0
  2 10  1  0
 10 11  2  0
 11 12  1  0
 12 13  2  0
 13 14  1  0
 14 15  2  0
 15 16  1  0
 16 17  1  0
 17 18  1  0
 17 19  1  0
  9  5  1  0
 15 10  1  0
M  END
>  <tags>  (42) 
{'openbind_d68ev3c_c1_fragmenstein', 'fragmenstein_placed'}

>  <fragmenstein_mode>  (42) 
expansion

>  <smiles>  (42) 
C656-P61

>  <alias>  (42) 
N[S@](=O)(=Nc1ccn[nH]1)c1ccccc1OC(F)F

>  <fragmenstein_runtime>  (42) 
1.566551

>  <inchikey>  (42) 
IZTDAONZCDDUEY-UHFFFAOYSA-N

>  <HIPPO Compound ID>  (42) 
1026

>  <scratch_subdir>  (42) 
/opt/xchem-fragalysis-2/maxwin/BulkDock/SCRATCH/505733/C656-P61

>  <fragmenstein_outcome>  (42) 
acceptable

>  <fragmenstein_error>  (42) 


>  <ref_pdb>  (42) 
50

>  <HIPPO Pose ID>  (42) 
642

>  <Energy>  (42) 
-41.98357

$$$$
Nc1cc(N=[S@](N)(=O)c2ccccc2OC(F)F)n[nH]1
     RDKit          3D

 20 21  0  0  0  0  0  0  0  0999 V2000
    9.6180   -0.7617   14.9889 N   0  0  0  0  0  0  0  0  0  0  0  0
   10.8075   -1.2399   15.4212 C   0  0  0  0  0  0  0  0  0  0  0  0
   11.3511   -2.5045   15.4168 C   0  0  0  0  0  0  0  0  0  0  0  0
   12.5743   -2.3584   16.0850 C   0  0  0  0  0  0  0  0  0  0  0  0
   13.5748   -3.3936   16.2072 N   0  0  0  0  0  0  0  0  0  0  0  0
   14.5095   -3.4326   17.4163 S   0  0  2  0  0  0  0  0  0  0  0  0
   15.7034   -4.4565   16.7824 N   0  0  0  0  0  0  0  0  0  0  0  0
   14.2382   -4.0555   18.6919 O   0  0  0  0  0  0  0  0  0  0  0  0
   15.2903   -1.8561   17.6802 C   0  0  0  0  0  0  0  0  0  0  0  0
   15.2900   -1.3189   18.9729 C   0  0  0  0  0  0  0  0  0  0  0  0
   15.7744   -0.0297   19.1790 C   0  0  0  0  0  0  0  0  0  0  0  0
   16.2498    0.7151   18.1000 C   0  0  0  0  0  0  0  0  0  0  0  0
   16.2567    0.1737   16.8099 C   0  0  0  0  0  0  0  0  0  0  0  0
   15.7752   -1.1173   16.5854 C   0  0  0  0  0  0  0  0  0  0  0  0
   15.7588   -1.7215   15.3599 O   0  0  0  0  0  0  0  0  0  0  0  0
   15.5824   -0.9121   14.2051 C   0  0  0  0  0  0  0  0  0  0  0  0
   14.6111    0.0161   14.3845 F   0  0  0  0  0  0  0  0  0  0  0  0
   16.7400   -0.2610   13.9439 F   0  0  0  0  0  0  0  0  0  0  0  0
   12.8088   -1.0999   16.4392 N   0  0  0  0  0  0  0  0  0  0  0  0
   11.7575   -0.4289   15.9703 N   0  0  0  0  0  0  0  0  0  0  0  0
  1  2  1  0
  2  3  2  0
  3  4  1  0
  4  5  1  0
  5  6  2  0
  6  7  1  6
  6  8  2  0
  6  9  1  0
  9 10  2  0
 10 11  1  0
 11 12  2  0
 12 13  1  0
 13 14  2  0
 14 15  1  0
 15 16  1  0
 16 17  1  0
 16 18  1  0
  4 19  2  0
 19 20  1  0
 20  2  1  0
 14  9  1  0
M  END
>  <tags>  (43) 
{'openbind_d68ev3c_c1_fragmenstein', 'fragmenstein_placed'}

>  <fragmenstein_mode>  (43) 
expansion

>  <smiles>  (43) 
C666-P61

>  <alias>  (43) 
Nc1cc(N=[S@](N)(=O)c2ccccc2OC(F)F)n[nH]1

>  <fragmenstein_runtime>  (43) 
1.865113

>  <inchikey>  (43) 
CSOZCVMTTZZLRS-UHFFFAOYSA-N

>  <HIPPO Compound ID>  (43) 
666

>  <scratch_subdir>  (43) 
/opt/xchem-fragalysis-2/maxwin/BulkDock/SCRATCH/505733/C666-P61

>  <fragmenstein_outcome>  (43) 
acceptable

>  <fragmenstein_error>  (43) 


>  <ref_pdb>  (43) 
50

>  <HIPPO Pose ID>  (43) 
649

>  <Energy>  (43) 
-89.457352

$$$$
Cc1c(C(=O)OCNCO)sc(F)c1F
     RDKit          3D

 15 15  0  0  0  0  0  0  0  0999 V2000
   13.8004    0.4503   14.8188 C   0  0  0  0  0  0  0  0  0  0  0  0
   13.3940   -0.9376   15.1744 C   0  0  0  0  0  0  0  0  0  0  0  0
   14.0496   -1.8276   16.0180 C   0  0  0  0  0  0  0  0  0  0  0  0
   15.3416   -1.7157   16.6661 C   0  0  0  0  0  0  0  0  0  0  0  0
   15.5102   -1.7472   17.8790 O   0  0  0  0  0  0  0  0  0  0  0  0
   16.3782   -1.4674   15.8112 O   0  0  0  0  0  0  0  0  0  0  0  0
   16.4676   -2.2005   14.5798 C   0  0  0  0  0  0  0  0  0  0  0  0
   16.5299   -1.2758   13.4663 N   0  0  0  0  0  0  0  0  0  0  0  0
   16.3109   -1.9269   12.2013 C   0  0  0  0  0  0  0  0  0  0  0  0
   14.9372   -2.2007   12.0552 O   0  0  0  0  0  0  0  0  0  0  0  0
   13.0832   -3.2102   16.3715 S   0  0  0  0  0  0  0  0  0  0  0  0
   11.8937   -2.7197   15.2705 C   0  0  0  0  0  0  0  0  0  0  0  0
   10.7846   -3.4215   15.0045 F   0  0  0  0  0  0  0  0  0  0  0  0
   12.1781   -1.5080   14.7152 C   0  0  0  0  0  0  0  0  0  0  0  0
   11.3705   -0.8481   13.8794 F   0  0  0  0  0  0  0  0  0  0  0  0
  1  2  1  0
  2  3  2  0
  3  4  1  0
  4  5  2  0
  4  6  1  0
  6  7  1  0
  7  8  1  0
  8  9  1  0
  9 10  1  0
  3 11  1  0
 11 12  1  0
 12 13  1  0
 12 14  2  0
 14 15  1  0
 14  2  1  0
M  END
>  <tags>  (44) 
{'openbind_d68ev3c_c1_fragmenstein', 'fragmenstein_placed'}

>  <fragmenstein_mode>  (44) 
expansion

>  <smiles>  (44) 
C787-P66

>  <alias>  (44) 
Cc1c(C(=O)OCNCO)sc(F)c1F

>  <fragmenstein_runtime>  (44) 
0.920113

>  <inchikey>  (44) 
QNEQWENHQHGYGQ-UHFFFAOYSA-N

>  <HIPPO Compound ID>  (44) 
787

>  <scratch_subdir>  (44) 
/opt/xchem-fragalysis-2/maxwin/BulkDock/SCRATCH/505733/C787-P66

>  <fragmenstein_outcome>  (44) 
acceptable

>  <fragmenstein_error>  (44) 


>  <ref_pdb>  (44) 
50

>  <HIPPO Pose ID>  (44) 
707

>  <Energy>  (44) 
-44.779813

$$$$
O=C1CC[C@@H](c2c(O)nc3cscc3c2O)CN1
     RDKit          3D

 18 20  0  0  0  0  0  0  0  0999 V2000
   15.1245    1.7200   21.2708 O   0  0  0  0  0  0  0  0  0  0  0  0
   15.5907    1.2415   20.2403 C   0  0  0  0  0  0  0  0  0  0  0  0
   15.7804   -0.2485   20.0713 C   0  0  0  0  0  0  0  0  0  0  0  0
   16.6958   -0.6284   18.9165 C   0  0  0  0  0  0  0  0  0  0  0  0
   16.3410    0.1540   17.6279 C   0  0  1  0  0  0  0  0  0  0  0  0
   14.9722   -0.1959   17.0202 C   0  0  0  0  0  0  0  0  0  0  0  0
   13.9969    0.7720   16.6233 C   0  0  0  0  0  0  0  0  0  0  0  0
   14.2089    2.1039   16.7761 O   0  0  0  0  0  0  0  0  0  0  0  0
   12.7814    0.5913   16.0318 N   0  0  0  0  0  0  0  0  0  0  0  0
   12.5197   -0.7133   15.8039 C   0  0  0  0  0  0  0  0  0  0  0  0
   11.3855   -1.1614   15.1833 C   0  0  0  0  0  0  0  0  0  0  0  0
   11.3836   -2.8704   15.0895 S   0  0  0  0  0  0  0  0  0  0  0  0
   12.8911   -2.9994   15.8966 C   0  0  0  0  0  0  0  0  0  0  0  0
   13.4221   -1.7612   16.1665 C   0  0  0  0  0  0  0  0  0  0  0  0
   14.6779   -1.5531   16.7481 C   0  0  0  0  0  0  0  0  0  0  0  0
   15.5899   -2.5467   16.9693 O   0  0  0  0  0  0  0  0  0  0  0  0
   16.6172    1.6201   18.0014 C   0  0  0  0  0  0  0  0  0  0  0  0
   15.8799    2.0431   19.1750 N   0  0  0  0  0  0  0  0  0  0  0  0
  1  2  2  0
  2  3  1  0
  3  4  1  0
  4  5  1  0
  5  6  1  1
  6  7  1  0
  7  8  1  0
  7  9  2  0
  9 10  1  0
 10 11  2  0
 11 12  1  0
 12 13  1  0
 13 14  2  0
 14 15  1  0
 15 16  1  0
  5 17  1  0
 17 18  1  0
 18  2  1  0
 15  6  2  0
 14 10  1  0
M  END
>  <tags>  (45) 
{'openbind_d68ev3c_c1_fragmenstein', 'fragmenstein_placed'}

>  <fragmenstein_mode>  (45) 
expansion

>  <smiles>  (45) 
C867-P71

>  <alias>  (45) 
O=C1CC[C@@H](c2c(O)nc3cscc3c2O)CN1

>  <fragmenstein_runtime>  (45) 
0.950009

>  <inchikey>  (45) 
IDHQHYZTVBNVEM-UHFFFAOYSA-N

>  <HIPPO Compound ID>  (45) 
507

>  <scratch_subdir>  (45) 
/opt/xchem-fragalysis-2/maxwin/BulkDock/SCRATCH/505733/C867-P71

>  <fragmenstein_outcome>  (45) 
acceptable

>  <fragmenstein_error>  (45) 


>  <ref_pdb>  (45) 
50

>  <HIPPO Pose ID>  (45) 
759

>  <Energy>  (45) 
-22.836138

$$$$
CS(=O)(=O)C[C@H](O)c1cscc1C(=O)N[C@H]1CCC(=O)NC1
     RDKit          3D

 22 23  0  0  0  0  0  0  0  0999 V2000
   14.6294    3.1331   13.5750 C   0  0  0  0  0  0  0  0  0  0  0  0
   13.6804    3.0757   15.0755 S   0  0  0  0  0  0  0  0  0  0  0  0
   12.7087    4.1521   15.0101 O   0  0  0  0  0  0  0  0  0  0  0  0
   14.6090    2.9974   16.1856 O   0  0  0  0  0  0  0  0  0  0  0  0
   12.7726    1.5540   15.0330 C   0  0  0  0  0  0  0  0  0  0  0  0
   13.6520    0.3764   14.6642 C   0  0  2  0  0  0  0  0  0  0  0  0
   13.7610    0.3256   13.2370 O   0  0  0  0  0  0  0  0  0  0  0  0
   13.0916   -0.9263   15.1709 C   0  0  0  0  0  0  0  0  0  0  0  0
   11.8112   -1.3513   14.8588 C   0  0  0  0  0  0  0  0  0  0  0  0
   11.4868   -2.9272   15.3893 S   0  0  0  0  0  0  0  0  0  0  0  0
   13.0145   -3.0611   16.1175 C   0  0  0  0  0  0  0  0  0  0  0  0
   13.8052   -1.9402   15.9289 C   0  0  0  0  0  0  0  0  0  0  0  0
   15.2018   -1.9385   16.3993 C   0  0  0  0  0  0  0  0  0  0  0  0
   15.8816   -2.8518   16.1660 O   0  0  0  0  0  0  0  0  0  0  0  0
   15.4909   -0.6636   17.1979 N   0  0  0  0  0  0  0  0  0  0  0  0
   16.7196   -0.1914   17.8068 C   0  0  1  0  0  0  0  0  0  0  0  0
   16.7432    1.3204   17.9950 C   0  0  0  0  0  0  0  0  0  0  0  0
   15.6902    1.7851   18.9944 C   0  0  0  0  0  0  0  0  0  0  0  0
   15.6225    0.9522   20.2560 C   0  0  0  0  0  0  0  0  0  0  0  0
   15.1188    1.3798   21.2906 O   0  0  0  0  0  0  0  0  0  0  0  0
   16.0392   -0.3466   20.1817 N   0  0  0  0  0  0  0  0  0  0  0  0
   16.9458   -0.8506   19.1696 C   0  0  0  0  0  0  0  0  0  0  0  0
  1  2  1  0
  2  3  2  0
  2  4  2  0
  2  5  1  0
  5  6  1  0
  6  7  1  6
  6  8  1  0
  8  9  2  0
  9 10  1  0
 10 11  1  0
 11 12  2  0
 12 13  1  0
 13 14  2  0
 13 15  1  0
 16 15  1  1
 16 17  1  0
 17 18  1  0
 18 19  1  0
 19 20  2  0
 19 21  1  0
 21 22  1  0
 12  8  1  0
 22 16  1  0
M  END
>  <tags>  (46) 
{'openbind_d68ev3c_c1_fragmenstein', 'fragmenstein_placed'}

>  <fragmenstein_mode>  (46) 
expansion

>  <smiles>  (46) 
C868-P71

>  <alias>  (46) 
CS(=O)(=O)C[C@H](O)c1cscc1C(=O)N[C@H]1CCC(=O)NC1

>  <fragmenstein_runtime>  (46) 
2.865499

>  <inchikey>  (46) 
IUFZDERRNZKGNV-UHFFFAOYSA-N

>  <HIPPO Compound ID>  (46) 
1260

>  <scratch_subdir>  (46) 
/opt/xchem-fragalysis-2/maxwin/BulkDock/SCRATCH/505733/C868-P71

>  <fragmenstein_outcome>  (46) 
acceptable

>  <fragmenstein_error>  (46) 


>  <ref_pdb>  (46) 
50

>  <HIPPO Pose ID>  (46) 
760

>  <Energy>  (46) 
-21.90565

$$$$
Cc1scnc1C(=O)C(=O)[C@H]1CNC(=O)C[C@@H]1S(=O)(=O)c1ccccc1
     RDKit          3D

 26 28  0  0  0  0  0  0  0  0999 V2000
   12.9459   -4.2954   16.6790 C   0  0  0  0  0  0  0  0  0  0  0  0
   12.7055   -2.9971   16.0039 C   0  0  0  0  0  0  0  0  0  0  0  0
   11.3811   -2.7723   14.9558 S   0  0  0  0  0  0  0  0  0  0  0  0
   11.8405   -1.1435   14.7198 C   0  0  0  0  0  0  0  0  0  0  0  0
   12.9125   -0.7537   15.3749 N   0  0  0  0  0  0  0  0  0  0  0  0
   13.4257   -1.8224   16.1052 C   0  0  0  0  0  0  0  0  0  0  0  0
   14.6073   -1.6726   16.9351 C   0  0  0  0  0  0  0  0  0  0  0  0
   15.4166   -2.5704   17.1552 O   0  0  0  0  0  0  0  0  0  0  0  0
   14.8229   -0.3511   17.6280 C   0  0  0  0  0  0  0  0  0  0  0  0
   13.8612    0.1819   18.1691 O   0  0  0  0  0  0  0  0  0  0  0  0
   16.2419    0.1674   17.7022 C   0  0  1  0  0  0  0  0  0  0  0  0
   16.2135    1.6803   17.8801 C   0  0  0  0  0  0  0  0  0  0  0  0
   15.8967    2.0836   19.2314 N   0  0  0  0  0  0  0  0  0  0  0  0
   15.9694    1.3177   20.3528 C   0  0  0  0  0  0  0  0  0  0  0  0
   15.6456    1.7809   21.4430 O   0  0  0  0  0  0  0  0  0  0  0  0
   16.3642   -0.1327   20.2125 C   0  0  0  0  0  0  0  0  0  0  0  0
   16.9850   -0.4952   18.8700 C   0  0  2  0  0  0  0  0  0  0  0  0
   18.7343   -0.1034   18.8083 S   0  0  0  0  0  0  0  0  0  0  0  0
   18.9575    1.1943   19.4124 O   0  0  0  0  0  0  0  0  0  0  0  0
   19.1961   -0.3658   17.4577 O   0  0  0  0  0  0  0  0  0  0  0  0
   19.4929   -1.3253   19.8542 C   0  0  0  0  0  0  0  0  0  0  0  0
   19.6857   -2.6197   19.3617 C   0  0  0  0  0  0  0  0  0  0  0  0
   20.2835   -3.5798   20.1772 C   0  0  0  0  0  0  0  0  0  0  0  0
   20.6935   -3.2427   21.4684 C   0  0  0  0  0  0  0  0  0  0  0  0
   20.5149   -1.9434   21.9471 C   0  0  0  0  0  0  0  0  0  0  0  0
   19.9185   -0.9764   21.1384 C   0  0  0  0  0  0  0  0  0  0  0  0
  1  2  1  0
  2  3  1  0
  3  4  1  0
  4  5  2  0
  5  6  1  0
  6  7  1  0
  7  8  2  0
  7  9  1  0
  9 10  2  0
 11  9  1  1
 11 12  1  0
 12 13  1  0
 13 14  1  0
 14 15  2  0
 14 16  1  0
 16 17  1  0
 17 18  1  1
 18 19  2  0
 18 20  2  0
 18 21  1  0
 21 22  2  0
 22 23  1  0
 23 24  2  0
 24 25  1  0
 25 26  2  0
  6  2  2  0
 17 11  1  0
 26 21  1  0
M  END
>  <tags>  (47) 
{'openbind_d68ev3c_c1_fragmenstein', 'fragmenstein_placed'}

>  <fragmenstein_mode>  (47) 
expansion

>  <smiles>  (47) 
C873-P71

>  <alias>  (47) 
Cc1scnc1C(=O)C(=O)[C@H]1CNC(=O)C[C@@H]1S(=O)(=O)c1ccccc1

>  <fragmenstein_runtime>  (47) 
4.018908

>  <inchikey>  (47) 
DHTQYGHLOPXGFU-UHFFFAOYSA-N

>  <HIPPO Compound ID>  (47) 
1120

>  <scratch_subdir>  (47) 
/opt/xchem-fragalysis-2/maxwin/BulkDock/SCRATCH/505733/C873-P71

>  <fragmenstein_outcome>  (47) 
acceptable

>  <fragmenstein_error>  (47) 


>  <ref_pdb>  (47) 
50

>  <HIPPO Pose ID>  (47) 
762

>  <Energy>  (47) 
29.406439

$$$$
O=C(NC1(c2nnc(-c3cccs3)[nH]2)CCC1)[C@@](S)(Cl)CCNc1nnc2ccccn12
     RDKit          3D

 32 36  0  0  0  0  0  0  0  0999 V2000
    2.8247   -4.4523   31.2590 O   0  0  0  0  0  0  0  0  0  0  0  0
    2.5496   -3.3177   31.3471 C   0  0  0  0  0  0  0  0  0  0  0  0
    3.3139   -2.1451   32.0278 N   0  0  0  0  0  0  0  0  0  0  0  0
    4.5272   -2.1477   32.8224 C   0  0  0  0  0  0  0  0  0  0  0  0
    4.2393   -2.9743   34.1170 C   0  0  0  0  0  0  0  0  0  0  0  0
    4.0823   -4.2800   34.1244 N   0  0  0  0  0  0  0  0  0  0  0  0
    3.7372   -4.6555   35.3988 N   0  0  0  0  0  0  0  0  0  0  0  0
    3.6374   -3.5685   36.1353 C   0  0  0  0  0  0  0  0  0  0  0  0
    3.2054   -3.5061   37.4991 C   0  0  0  0  0  0  0  0  0  0  0  0
    2.9704   -2.3813   38.2705 C   0  0  0  0  0  0  0  0  0  0  0  0
    2.5446   -2.7013   39.5950 C   0  0  0  0  0  0  0  0  0  0  0  0
    2.4690   -4.0598   39.7968 C   0  0  0  0  0  0  0  0  0  0  0  0
    2.9089   -4.9382   38.4001 S   0  0  0  0  0  0  0  0  0  0  0  0
    3.9776   -2.4878   35.3655 N   0  0  0  0  0  0  0  0  0  0  0  0
    5.8021   -2.5724   32.0519 C   0  0  0  0  0  0  0  0  0  0  0  0
    6.5544   -1.4480   32.7912 C   0  0  0  0  0  0  0  0  0  0  0  0
    5.1906   -0.7630   33.0106 C   0  0  0  0  0  0  0  0  0  0  0  0
    1.2053   -2.7640   30.7759 C   0  0  1  0  0  0  0  0  0  0  0  0
    0.5560   -1.3552   31.7888 S   0  0  0  0  0  0  0  0  0  0  0  0
    1.5647   -2.1196   29.1426 Cl  0  0  0  0  0  0  0  0  0  0  0  0
    0.1150   -3.8503   30.7588 C   0  0  0  0  0  0  0  0  0  0  0  0
    0.3909   -5.0655   29.8659 C   0  0  0  0  0  0  0  0  0  0  0  0
    0.9051   -6.2088   30.6103 N   0  0  0  0  0  0  0  0  0  0  0  0
    0.0045   -6.8829   31.3742 C   0  0  0  0  0  0  0  0  0  0  0  0
   -1.0797   -7.5323   30.9980 N   0  0  0  0  0  0  0  0  0  0  0  0
   -1.7247   -7.9858   32.1271 N   0  0  0  0  0  0  0  0  0  0  0  0
   -1.0567   -7.5489   33.1734 C   0  0  0  0  0  0  0  0  0  0  0  0
   -1.2883   -7.6219   34.5740 C   0  0  0  0  0  0  0  0  0  0  0  0
   -0.4201   -7.0515   35.4304 C   0  0  0  0  0  0  0  0  0  0  0  0
    0.7650   -6.3634   34.9547 C   0  0  0  0  0  0  0  0  0  0  0  0
    0.9925   -6.2951   33.6338 C   0  0  0  0  0  0  0  0  0  0  0  0
    0.0785   -6.8777   32.7552 N   0  0  0  0  0  0  0  0  0  0  0  0
  1  2  2  0
  2  3  1  0
  3  4  1  0
  4  5  1  0
  5  6  2  0
  6  7  1  0
  7  8  2  0
  8  9  1  0
  9 10  2  0
 10 11  1  0
 11 12  2  0
 12 13  1  0
  8 14  1  0
  4 15  1  0
 15 16  1  0
 16 17  1  0
  2 18  1  0
 18 19  1  1
 18 20  1  0
 18 21  1  0
 21 22  1  0
 22 23  1  0
 23 24  1  0
 24 25  2  0
 25 26  1  0
 26 27  2  0
 27 28  1  0
 28 29  2  0
 29 30  1  0
 30 31  2  0
 31 32  1  0
 17  4  1  0
 32 24  1  0
 14  5  1  0
 32 27  1  0
 13  9  1  0
M  END
>  <tags>  (48) 
{'openbind_d68ev3c_c1_fragmenstein', 'fragmenstein_placed'}

>  <fragmenstein_mode>  (48) 
expansion

>  <smiles>  (48) 
C900-P72

>  <alias>  (48) 
O=C(NC1(c2nnc(-c3cccs3)[nH]2)CCC1)[C@@](S)(Cl)CCNc1nnc2ccccn12

>  <fragmenstein_runtime>  (48) 
3.752838

>  <inchikey>  (48) 
CNKKVOAKALIQAJ-UHFFFAOYSA-N

>  <HIPPO Compound ID>  (48) 
605

>  <scratch_subdir>  (48) 
/opt/xchem-fragalysis-2/maxwin/BulkDock/SCRATCH/505733/C900-P72

>  <fragmenstein_outcome>  (48) 
acceptable

>  <fragmenstein_error>  (48) 


>  <ref_pdb>  (48) 
50

>  <HIPPO Pose ID>  (48) 
774

>  <Energy>  (48) 
88.09897

$$$$
Cc1ccc(CS(=O)(=O)NCC[C@@H]2CNCCN2c2ccc(S(C)(=O)=O)cc2)cc1F
     RDKit          3D

 31 33  0  0  0  0  0  0  0  0999 V2000
   -3.4310   -0.8998    7.3836 C   0  0  0  0  0  0  0  0  0  0  0  0
   -4.7594   -1.5216    7.1251 C   0  0  0  0  0  0  0  0  0  0  0  0
   -4.9626   -2.5075    6.1597 C   0  0  0  0  0  0  0  0  0  0  0  0
   -6.2131   -3.1216    6.0243 C   0  0  0  0  0  0  0  0  0  0  0  0
   -7.2933   -2.7277    6.8175 C   0  0  0  0  0  0  0  0  0  0  0  0
   -8.6163   -3.4320    6.7396 C   0  0  0  0  0  0  0  0  0  0  0  0
   -9.8358   -2.5504    5.7537 S   0  0  0  0  0  0  0  0  0  0  0  0
   -9.9882   -1.1976    6.2326 O   0  0  0  0  0  0  0  0  0  0  0  0
  -11.0036   -3.4003    5.6476 O   0  0  0  0  0  0  0  0  0  0  0  0
   -9.2634   -2.4581    4.1670 N   0  0  0  0  0  0  0  0  0  0  0  0
   -8.1190   -1.5712    3.8632 C   0  0  0  0  0  0  0  0  0  0  0  0
   -8.2340   -0.9141    2.4862 C   0  0  0  0  0  0  0  0  0  0  0  0
   -9.0305    0.4122    2.4306 C   0  0  2  0  0  0  0  0  0  0  0  0
   -9.2851    0.8224    0.9442 C   0  0  0  0  0  0  0  0  0  0  0  0
   -8.0705    1.2344    0.2061 N   0  0  0  0  0  0  0  0  0  0  0  0
   -7.4339    2.3518    0.9330 C   0  0  0  0  0  0  0  0  0  0  0  0
   -7.1215    2.0546    2.4194 C   0  0  0  0  0  0  0  0  0  0  0  0
   -8.3155    1.5354    3.0987 N   0  0  0  0  0  0  0  0  0  0  0  0
   -8.4791    1.6963    4.4667 C   0  0  0  0  0  0  0  0  0  0  0  0
   -7.3999    1.6996    5.3651 C   0  0  0  0  0  0  0  0  0  0  0  0
   -7.6098    1.6594    6.7483 C   0  0  0  0  0  0  0  0  0  0  0  0
   -8.9150    1.6448    7.2386 C   0  0  0  0  0  0  0  0  0  0  0  0
   -9.2285    1.3639    8.9566 S   0  0  0  0  0  0  0  0  0  0  0  0
  -10.2453   -0.0842    9.0362 C   0  0  0  0  0  0  0  0  0  0  0  0
   -7.9734    1.0357    9.5975 O   0  0  0  0  0  0  0  0  0  0  0  0
  -10.0243    2.4858    9.4216 O   0  0  0  0  0  0  0  0  0  0  0  0
   -9.9972    1.7952    6.3762 C   0  0  0  0  0  0  0  0  0  0  0  0
   -9.7721    1.8083    5.0009 C   0  0  0  0  0  0  0  0  0  0  0  0
   -7.0820   -1.7090    7.7473 C   0  0  0  0  0  0  0  0  0  0  0  0
   -5.8379   -1.1148    7.8907 C   0  0  0  0  0  0  0  0  0  0  0  0
   -5.6645   -0.1666    8.8191 F   0  0  0  0  0  0  0  0  0  0  0  0
  1  2  1  0
  2  3  2  0
  3  4  1  0
  4  5  2  0
  5  6  1  0
  6  7  1  0
  7  8  2  0
  7  9  2  0
  7 10  1  0
 10 11  1  0
 11 12  1  0
 13 12  1  6
 13 14  1  0
 14 15  1  0
 15 16  1  0
 16 17  1  0
 17 18  1  0
 18 19  1  0
 19 20  2  0
 20 21  1  0
 21 22  2  0
 22 23  1  0
 23 24  1  0
 23 25  2  0
 23 26  2  0
 22 27  1  0
 27 28  2  0
  5 29  1  0
 29 30  2  0
 30 31  1  0
 30  2  1  0
 18 13  1  0
 28 19  1  0
M  END
>  <tags>  (49) 
{'openbind_d68ev3c_c1_fragmenstein', 'fragmenstein_placed'}

>  <fragmenstein_mode>  (49) 
expansion

>  <smiles>  (49) 
C936-P73

>  <alias>  (49) 
Cc1ccc(CS(=O)(=O)NCC[C@@H]2CNCCN2c2ccc(S(C)(=O)=O)cc2)cc1F

>  <fragmenstein_runtime>  (49) 
7.155978

>  <inchikey>  (49) 
RSGUTJQENBKADA-UHFFFAOYSA-N

>  <HIPPO Compound ID>  (49) 
620

>  <scratch_subdir>  (49) 
/opt/xchem-fragalysis-2/maxwin/BulkDock/SCRATCH/505733/C936-P73

>  <fragmenstein_outcome>  (49) 
acceptable

>  <fragmenstein_error>  (49) 


>  <ref_pdb>  (49) 
50

>  <HIPPO Pose ID>  (49) 
790

>  <Energy>  (49) 
119.743346

$$$$
CCn1ccc([C@@H](NC)NCn2ccc3ccc(CN)cc32)n1
     RDKit          3D

 23 25  0  0  0  0  0  0  0  0999 V2000
  -12.1962    1.8630   10.8852 C   0  0  0  0  0  0  0  0  0  0  0  0
  -12.2542    0.4893   10.2315 C   0  0  0  0  0  0  0  0  0  0  0  0
  -11.7952    0.4857    8.8557 N   0  0  0  0  0  0  0  0  0  0  0  0
  -12.2948   -0.2623    7.8308 C   0  0  0  0  0  0  0  0  0  0  0  0
  -11.6228    0.1543    6.7061 C   0  0  0  0  0  0  0  0  0  0  0  0
  -10.7100    1.1543    7.1511 C   0  0  0  0  0  0  0  0  0  0  0  0
   -9.7768    1.9814    6.2809 C   0  0  1  0  0  0  0  0  0  0  0  0
   -9.9279    3.4332    6.3171 N   0  0  0  0  0  0  0  0  0  0  0  0
  -10.0383    4.0446    7.6358 C   0  0  0  0  0  0  0  0  0  0  0  0
   -8.3779    1.6109    6.3092 N   0  0  0  0  0  0  0  0  0  0  0  0
   -7.6523    1.7715    7.5591 C   0  0  0  0  0  0  0  0  0  0  0  0
   -6.4749    0.8942    7.4592 N   0  0  0  0  0  0  0  0  0  0  0  0
   -5.1588    1.2785    7.4193 C   0  0  0  0  0  0  0  0  0  0  0  0
   -4.3908    0.1423    7.2628 C   0  0  0  0  0  0  0  0  0  0  0  0
   -5.2706   -0.9597    7.0982 C   0  0  0  0  0  0  0  0  0  0  0  0
   -5.1182   -2.3160    6.7607 C   0  0  0  0  0  0  0  0  0  0  0  0
   -6.2728   -3.1094    6.6136 C   0  0  0  0  0  0  0  0  0  0  0  0
   -7.5458   -2.6197    6.9105 C   0  0  0  0  0  0  0  0  0  0  0  0
   -8.7848   -3.4654    6.8000 C   0  0  0  0  0  0  0  0  0  0  0  0
   -9.6448   -3.0395    5.6922 N   0  0  0  0  0  0  0  0  0  0  0  0
   -7.6844   -1.2942    7.3158 C   0  0  0  0  0  0  0  0  0  0  0  0
   -6.5548   -0.4771    7.3242 C   0  0  0  0  0  0  0  0  0  0  0  0
  -10.7877    1.2953    8.4848 N   0  0  0  0  0  0  0  0  0  0  0  0
  1  2  1  0
  2  3  1  0
  3  4  1  0
  4  5  2  0
  5  6  1  0
  6  7  1  0
  7  8  1  1
  8  9  1  0
  7 10  1  0
 10 11  1  0
 11 12  1  0
 12 13  1  0
 13 14  2  0
 14 15  1  0
 15 16  2  0
 16 17  1  0
 17 18  2  0
 18 19  1  0
 19 20  1  0
 18 21  1  0
 21 22  2  0
  6 23  2  0
 23  3  1  0
 22 12  1  0
 22 15  1  0
M  END
>  <tags>  (50) 
{'openbind_d68ev3c_c1_fragmenstein', 'fragmenstein_placed'}

>  <fragmenstein_mode>  (50) 
expansion

>  <smiles>  (50) 
C950-P73

>  <alias>  (50) 
CCn1ccc([C@@H](NC)NCn2ccc3ccc(CN)cc32)n1

>  <fragmenstein_runtime>  (50) 
4.248528

>  <inchikey>  (50) 
APUVCQGARNVGCS-UHFFFAOYSA-N

>  <HIPPO Compound ID>  (50) 
1358

>  <scratch_subdir>  (50) 
/opt/xchem-fragalysis-2/maxwin/BulkDock/SCRATCH/505733/C950-P73

>  <fragmenstein_outcome>  (50) 
acceptable

>  <fragmenstein_error>  (50) 


>  <ref_pdb>  (50) 
50

>  <HIPPO Pose ID>  (50) 
800

>  <Energy>  (50) 
12.277955

$$$$
CC1(C)OC(=O)c2c(cc(O)c(Br)c2CCNS(=O)(=O)c2ccns2)O1
     RDKit          3D

 26 28  0  0  0  0  0  0  0  0999 V2000
  -16.5017  -24.4908   11.3505 C   0  0  0  0  0  0  0  0  0  0  0  0
  -15.2003  -25.2642   11.5707 C   0  0  0  0  0  0  0  0  0  0  0  0
  -15.3251  -26.6526   10.9324 C   0  0  0  0  0  0  0  0  0  0  0  0
  -14.1766  -24.5127   10.9096 O   0  0  0  0  0  0  0  0  0  0  0  0
  -12.8866  -24.7480   11.2247 C   0  0  0  0  0  0  0  0  0  0  0  0
  -11.9863  -24.5076   10.4339 O   0  0  0  0  0  0  0  0  0  0  0  0
  -12.6366  -25.2852   12.5810 C   0  0  0  0  0  0  0  0  0  0  0  0
  -13.7507  -25.5931   13.3677 C   0  0  0  0  0  0  0  0  0  0  0  0
  -13.6070  -26.1432   14.6383 C   0  0  0  0  0  0  0  0  0  0  0  0
  -12.3430  -26.4860   15.0866 C   0  0  0  0  0  0  0  0  0  0  0  0
  -12.1938  -27.0656   16.3162 O   0  0  0  0  0  0  0  0  0  0  0  0
  -11.2153  -26.2257   14.2989 C   0  0  0  0  0  0  0  0  0  0  0  0
   -9.5691  -26.9723   14.8969 Br  0  0  0  0  0  0  0  0  0  0  0  0
  -11.3295  -25.5140   13.0811 C   0  0  0  0  0  0  0  0  0  0  0  0
  -10.0826  -24.9635   12.4004 C   0  0  0  0  0  0  0  0  0  0  0  0
   -9.4185  -25.9189   11.4097 C   0  0  0  0  0  0  0  0  0  0  0  0
   -7.9272  -25.8020   11.4720 N   0  0  0  0  0  0  0  0  0  0  0  0
   -7.0969  -27.2949   11.3519 S   0  0  0  0  0  0  0  0  0  0  0  0
   -6.9335  -27.5317    9.9353 O   0  0  0  0  0  0  0  0  0  0  0  0
   -7.7434  -28.2542   12.2173 O   0  0  0  0  0  0  0  0  0  0  0  0
   -5.4549  -27.0571   11.9551 C   0  0  0  0  0  0  0  0  0  0  0  0
   -4.4024  -26.2451   11.5751 C   0  0  0  0  0  0  0  0  0  0  0  0
   -3.2552  -26.5157   12.3718 C   0  0  0  0  0  0  0  0  0  0  0  0
   -3.3854  -27.4473   13.3121 N   0  0  0  0  0  0  0  0  0  0  0  0
   -4.9385  -28.0266   13.2632 S   0  0  0  0  0  0  0  0  0  0  0  0
  -15.0393  -25.3795   12.9807 O   0  0  0  0  0  0  0  0  0  0  0  0
  1  2  1  0
  2  3  1  0
  2  4  1  0
  4  5  1  0
  5  6  2  0
  5  7  1  0
  7  8  2  0
  8  9  1  0
  9 10  2  0
 10 11  1  0
 10 12  1  0
 12 13  1  0
 12 14  2  0
 14 15  1  0
 15 16  1  0
 16 17  1  0
 17 18  1  0
 18 19  2  0
 18 20  2  0
 18 21  1  0
 21 22  2  0
 22 23  1  0
 23 24  2  0
 24 25  1  0
  8 26  1  0
 26  2  1  0
 14  7  1  0
 25 21  1  0
M  END
>  <tags>  (51) 
{'openbind_d68ev3c_c1_fragmenstein', 'fragmenstein_placed'}

>  <fragmenstein_mode>  (51) 
expansion

>  <smiles>  (51) 
C1026-P77

>  <alias>  (51) 
CC1(C)OC(=O)c2c(cc(O)c(Br)c2CCNS(=O)(=O)c2ccns2)O1

>  <fragmenstein_runtime>  (51) 
3.040334

>  <inchikey>  (51) 
FNLQDVXHDNFXIY-UHFFFAOYSA-N

>  <HIPPO Compound ID>  (51) 
730

>  <scratch_subdir>  (51) 
/opt/xchem-fragalysis-2/maxwin/BulkDock/SCRATCH/505733/C1026-P77

>  <fragmenstein_outcome>  (51) 
acceptable

>  <fragmenstein_error>  (51) 


>  <ref_pdb>  (51) 
50

>  <HIPPO Pose ID>  (51) 
847

>  <Energy>  (51) 
-27.992852

$$$$
CN1N[C@@]2(CNC[C@@H]2Cl)N[C@H]1Sc1cccc2nncn12
     RDKit          3D

 21 24  0  0  0  0  0  0  0  0999 V2000
   16.1717    1.8030   18.3394 C   0  0  0  0  0  0  0  0  0  0  0  0
   14.9263    2.1468   17.6730 N   0  0  0  0  0  0  0  0  0  0  0  0
   15.1264    3.0534   16.5624 N   0  0  0  0  0  0  0  0  0  0  0  0
   13.9050    2.9282   15.7586 C   0  0  2  0  0  0  0  0  0  0  0  0
   14.1360    2.7116   14.2349 C   0  0  0  0  0  0  0  0  0  0  0  0
   12.8986    3.1233   13.5341 N   0  0  0  0  0  0  0  0  0  0  0  0
   12.1351    3.9468   14.4971 C   0  0  0  0  0  0  0  0  0  0  0  0
   13.0330    4.2094   15.7103 C   0  0  2  0  0  0  0  0  0  0  0  0
   13.9849    5.7179   15.4511 Cl  0  0  0  0  0  0  0  0  0  0  0  0
   13.1541    1.7766   16.3482 N   0  0  0  0  0  0  0  0  0  0  0  0
   14.1217    1.0505   17.1644 C   0  0  1  0  0  0  0  0  0  0  0  0
   14.9980   -0.2069   16.1800 S   0  0  0  0  0  0  0  0  0  0  0  0
   13.9747   -1.5879   16.3414 C   0  0  0  0  0  0  0  0  0  0  0  0
   14.4044   -2.6642   17.0320 C   0  0  0  0  0  0  0  0  0  0  0  0
   13.5538   -3.8355   17.1428 C   0  0  0  0  0  0  0  0  0  0  0  0
   12.3402   -3.8704   16.5690 C   0  0  0  0  0  0  0  0  0  0  0  0
   11.8558   -2.7272   15.8925 C   0  0  0  0  0  0  0  0  0  0  0  0
   10.6751   -2.4247   15.4114 N   0  0  0  0  0  0  0  0  0  0  0  0
   10.7396   -1.1450   14.9304 N   0  0  0  0  0  0  0  0  0  0  0  0
   11.9838   -0.7487   15.0179 C   0  0  0  0  0  0  0  0  0  0  0  0
   12.7033   -1.6399   15.7603 N   0  0  0  0  0  0  0  0  0  0  0  0
  1  2  1  0
  2  3  1  0
  3  4  1  0
  4  5  1  6
  5  6  1  0
  6  7  1  0
  7  8  1  0
  8  9  1  6
  4 10  1  0
 10 11  1  0
 11 12  1  6
 12 13  1  0
 13 14  2  0
 14 15  1  0
 15 16  2  0
 16 17  1  0
 17 18  2  0
 18 19  1  0
 19 20  2  0
 20 21  1  0
 11  2  1  0
 21 13  1  0
  8  4  1  0
 21 17  1  0
M  END
>  <tags>  (52) 
{'openbind_d68ev3c_c1_fragmenstein', 'fragmenstein_placed'}

>  <fragmenstein_mode>  (52) 
expansion

>  <smiles>  (52) 
C1065-P80

>  <alias>  (52) 
CN1N[C@@]2(CNC[C@@H]2Cl)N[C@H]1Sc1cccc2nncn12

>  <fragmenstein_runtime>  (52) 
5.127125

>  <inchikey>  (52) 
QPFMOOAXWTYAJX-UHFFFAOYSA-N

>  <HIPPO Compound ID>  (52) 
1065

>  <scratch_subdir>  (52) 
/opt/xchem-fragalysis-2/maxwin/BulkDock/SCRATCH/505733/C1065-P80

>  <fragmenstein_outcome>  (52) 
acceptable

>  <fragmenstein_error>  (52) 


>  <ref_pdb>  (52) 
50

>  <HIPPO Pose ID>  (52) 
866

>  <Energy>  (52) 
95.096621

$$$$
C[C@@H]1CCCN([S@](C)(=O)=NCCCc2c(-c3ccccc3)nc(Sc3cccc4nncn34)n2C)[C@@H]1CO
     RDKit          3D

 38 42  0  0  0  0  0  0  0  0999 V2000
   17.9391   -2.9826   10.0948 C   0  0  0  0  0  0  0  0  0  0  0  0
   16.9011   -3.1868   11.1988 C   0  0  2  0  0  0  0  0  0  0  0  0
   15.6949   -2.2724   10.9897 C   0  0  0  0  0  0  0  0  0  0  0  0
   16.0350   -0.8451   11.3508 C   0  0  0  0  0  0  0  0  0  0  0  0
   16.5223   -0.7811   12.7857 C   0  0  0  0  0  0  0  0  0  0  0  0
   17.7007   -1.6117   13.0758 N   0  0  0  0  0  0  0  0  0  0  0  0
   18.4606   -1.3501   14.6283 S   0  0  2  0  0  0  0  0  0  0  0  0
   20.1956   -1.1724   14.3049 C   0  0  0  0  0  0  0  0  0  0  0  0
   18.2784   -2.5998   15.3267 O   0  0  0  0  0  0  0  0  0  0  0  0
   17.9834    0.0115   15.1485 N   0  0  0  0  0  0  0  0  0  0  0  0
   16.7946    0.1618   15.9934 C   0  0  0  0  0  0  0  0  0  0  0  0
   16.9407   -0.3939   17.4120 C   0  0  0  0  0  0  0  0  0  0  0  0
   16.7270   -1.9075   17.4935 C   0  0  0  0  0  0  0  0  0  0  0  0
   15.7276   -2.3331   18.5093 C   0  0  0  0  0  0  0  0  0  0  0  0
   14.4393   -2.8215   18.3498 C   0  0  0  0  0  0  0  0  0  0  0  0
   13.6852   -2.8932   17.1021 C   0  0  0  0  0  0  0  0  0  0  0  0
   13.6431   -1.8036   16.2177 C   0  0  0  0  0  0  0  0  0  0  0  0
   12.8984   -1.8410   15.0370 C   0  0  0  0  0  0  0  0  0  0  0  0
   12.1699   -2.9804   14.7268 C   0  0  0  0  0  0  0  0  0  0  0  0
   12.1939   -4.0693   15.5976 C   0  0  0  0  0  0  0  0  0  0  0  0
   12.9382   -4.0246   16.7829 C   0  0  0  0  0  0  0  0  0  0  0  0
   13.9163   -3.1848   19.5654 N   0  0  0  0  0  0  0  0  0  0  0  0
   14.8321   -2.8809   20.4553 C   0  0  0  0  0  0  0  0  0  0  0  0
   14.6238   -2.9278   22.1781 S   0  0  0  0  0  0  0  0  0  0  0  0
   14.2357   -4.6072   22.3549 C   0  0  0  0  0  0  0  0  0  0  0  0
   13.0490   -5.1099   21.9563 C   0  0  0  0  0  0  0  0  0  0  0  0
   12.7551   -6.5185   22.1665 C   0  0  0  0  0  0  0  0  0  0  0  0
   13.6334   -7.3411   22.7683 C   0  0  0  0  0  0  0  0  0  0  0  0
   14.8784   -6.8236   23.2114 C   0  0  0  0  0  0  0  0  0  0  0  0
   15.8990   -7.3780   23.8293 N   0  0  0  0  0  0  0  0  0  0  0  0
   16.8499   -6.4040   24.0277 N   0  0  0  0  0  0  0  0  0  0  0  0
   16.3833   -5.2821   23.5269 C   0  0  0  0  0  0  0  0  0  0  0  0
   15.1368   -5.4763   22.9887 N   0  0  0  0  0  0  0  0  0  0  0  0
   15.9658   -2.3842   19.8662 N   0  0  0  0  0  0  0  0  0  0  0  0
   17.1736   -1.9855   20.5515 C   0  0  0  0  0  0  0  0  0  0  0  0
   17.4833   -3.0332   12.6435 C   0  0  2  0  0  0  0  0  0  0  0  0
   18.7738   -3.9040   12.7790 C   0  0  0  0  0  0  0  0  0  0  0  0
   18.5993   -5.2500   12.3624 O   0  0  0  0  0  0  0  0  0  0  0  0
  2  1  1  6
  2  3  1  0
  3  4  1  0
  4  5  1  0
  5  6  1  0
  6  7  1  0
  7  8  1  6
  7  9  2  0
  7 10  2  0
 10 11  1  0
 11 12  1  0
 12 13  1  0
 13 14  1  0
 14 15  2  0
 15 16  1  0
 16 17  2  0
 17 18  1  0
 18 19  2  0
 19 20  1  0
 20 21  2  0
 15 22  1  0
 22 23  2  0
 23 24  1  0
 24 25  1  0
 25 26  2  0
 26 27  1  0
 27 28  2  0
 28 29  1  0
 29 30  2  0
 30 31  1  0
 31 32  2  0
 32 33  1  0
 23 34  1  0
 34 35  1  0
  6 36  1  0
 36 37  1  6
 37 38  1  0
 36  2  1  0
 34 14  1  0
 21 16  1  0
 33 25  1  0
 33 29  1  0
M  END
>  <tags>  (53) 
{'openbind_d68ev3c_c1_fragmenstein', 'fragmenstein_placed'}

>  <fragmenstein_mode>  (53) 
expansion

>  <smiles>  (53) 
C1145-P83

>  <alias>  (53) 
C[C@@H]1CCCN([S@](C)(=O)=NCCCc2c(-c3ccccc3)nc(Sc3cccc4nncn34)n2C)[C@@H]1CO

>  <fragmenstein_runtime>  (53) 
15.894207

>  <inchikey>  (53) 
ZQJWJBJFKYIAQA-UHFFFAOYSA-N

>  <HIPPO Compound ID>  (53) 
1145

>  <scratch_subdir>  (53) 
/opt/xchem-fragalysis-2/maxwin/BulkDock/SCRATCH/505733/C1145-P83

>  <fragmenstein_outcome>  (53) 
acceptable

>  <fragmenstein_error>  (53) 


>  <ref_pdb>  (53) 
50

>  <HIPPO Pose ID>  (53) 
918

>  <Energy>  (53) 
-0.98688

$$$$
CC[C@H](Cc1cn(CC)cn1)C(=O)O
     RDKit          3D

 14 14  0  0  0  0  0  0  0  0999 V2000
   13.9400    1.3201   16.3009 C   0  0  0  0  0  0  0  0  0  0  0  0
   13.2380    1.0504   14.9795 C   0  0  0  0  0  0  0  0  0  0  0  0
   13.5537   -0.2766   14.2600 C   0  0  2  0  0  0  0  0  0  0  0  0
   13.2234   -1.5583   15.0357 C   0  0  0  0  0  0  0  0  0  0  0  0
   14.1119   -1.9292   16.1773 C   0  0  0  0  0  0  0  0  0  0  0  0
   13.7918   -2.6800   17.2917 C   0  0  0  0  0  0  0  0  0  0  0  0
   14.9085   -2.6546   18.0800 N   0  0  0  0  0  0  0  0  0  0  0  0
   15.0071   -3.0811   19.4605 C   0  0  0  0  0  0  0  0  0  0  0  0
   14.8622   -4.5770   19.6465 C   0  0  0  0  0  0  0  0  0  0  0  0
   15.8826   -1.9989   17.3861 C   0  0  0  0  0  0  0  0  0  0  0  0
   15.4294   -1.5408   16.2412 N   0  0  0  0  0  0  0  0  0  0  0  0
   14.9131   -0.3684   13.6000 C   0  0  0  0  0  0  0  0  0  0  0  0
   15.2823   -1.2758   12.8684 O   0  0  0  0  0  0  0  0  0  0  0  0
   15.7211    0.6869   13.8030 O   0  0  0  0  0  0  0  0  0  0  0  0
  1  2  1  0
  3  2  1  1
  3  4  1  0
  4  5  1  0
  5  6  2  0
  6  7  1  0
  7  8  1  0
  8  9  1  0
  7 10  1  0
 10 11  2  0
  3 12  1  0
 12 13  2  0
 12 14  1  0
 11  5  1  0
M  END
>  <tags>  (54) 
{'openbind_d68ev3c_c1_fragmenstein', 'fragmenstein_placed'}

>  <fragmenstein_mode>  (54) 
expansion

>  <smiles>  (54) 
C1294-P93

>  <alias>  (54) 
CC[C@H](Cc1cn(CC)cn1)C(=O)O

>  <fragmenstein_runtime>  (54) 
1.36813

>  <inchikey>  (54) 
XKWDGMMHYXZUCN-UHFFFAOYSA-N

>  <HIPPO Compound ID>  (54) 
1294

>  <scratch_subdir>  (54) 
/opt/xchem-fragalysis-2/maxwin/BulkDock/SCRATCH/505733/C1294-P93

>  <fragmenstein_outcome>  (54) 
acceptable

>  <fragmenstein_error>  (54) 


>  <ref_pdb>  (54) 
50

>  <HIPPO Pose ID>  (54) 
985

>  <Energy>  (54) 
-26.652767

$$$$
CCn1cnc2cc(I)ccc21
     RDKit          3D

 12 13  0  0  0  0  0  0  0  0999 V2000
   14.6687   -3.5472   20.4824 C   0  0  0  0  0  0  0  0  0  0  0  0
   14.5959   -4.2148   19.1185 C   0  0  0  0  0  0  0  0  0  0  0  0
   14.9009   -3.3000   18.0350 N   0  0  0  0  0  0  0  0  0  0  0  0
   16.0825   -2.6179   17.9179 C   0  0  0  0  0  0  0  0  0  0  0  0
   16.0072   -1.6677   17.0177 N   0  0  0  0  0  0  0  0  0  0  0  0
   14.7436   -1.7720   16.4981 C   0  0  0  0  0  0  0  0  0  0  0  0
   14.1121   -0.9424   15.5669 C   0  0  0  0  0  0  0  0  0  0  0  0
   12.7926   -1.2272   15.2151 C   0  0  0  0  0  0  0  0  0  0  0  0
   11.7799    0.1982   14.0898 I   0  0  0  0  0  0  0  0  0  0  0  0
   12.1470   -2.3741   15.6832 C   0  0  0  0  0  0  0  0  0  0  0  0
   12.7703   -3.2165   16.6189 C   0  0  0  0  0  0  0  0  0  0  0  0
   14.0523   -2.8490   17.0508 C   0  0  0  0  0  0  0  0  0  0  0  0
  1  2  1  0
  2  3  1  0
  3  4  1  0
  4  5  2  0
  5  6  1  0
  6  7  2  0
  7  8  1  0
  8  9  1  0
  8 10  2  0
 10 11  1  0
 11 12  2  0
 12  3  1  0
 12  6  1  0
M  END
>  <tags>  (55) 
{'openbind_d68ev3c_c1_fragmenstein', 'fragmenstein_placed'}

>  <fragmenstein_mode>  (55) 
expansion

>  <smiles>  (55) 
C1298-P93

>  <alias>  (55) 
CCn1cnc2cc(I)ccc21

>  <fragmenstein_runtime>  (55) 
1.088498

>  <inchikey>  (55) 
OSRDSXBOKMKPSY-UHFFFAOYSA-N

>  <HIPPO Compound ID>  (55) 
1111

>  <scratch_subdir>  (55) 
/opt/xchem-fragalysis-2/maxwin/BulkDock/SCRATCH/505733/C1298-P93

>  <fragmenstein_outcome>  (55) 
acceptable

>  <fragmenstein_error>  (55) 


>  <ref_pdb>  (55) 
50

>  <HIPPO Pose ID>  (55) 
986

>  <Energy>  (55) 
9.995229

$$$$
CC[C@@](N)(O)N1C(=O)CC(C(F)(F)F)=C1F
     RDKit          3D

 16 16  0  0  0  0  0  0  0  0999 V2000
   17.3543   -2.5482   15.7605 C   0  0  0  0  0  0  0  0  0  0  0  0
   17.1790   -3.4195   16.9978 C   0  0  0  0  0  0  0  0  0  0  0  0
   16.0929   -2.9109   17.9621 C   0  0  1  0  0  0  0  0  0  0  0  0
   16.2255   -3.5775   19.2339 N   0  0  0  0  0  0  0  0  0  0  0  0
   16.3062   -1.5572   18.2645 O   0  0  0  0  0  0  0  0  0  0  0  0
   14.7499   -3.0817   17.4820 N   0  0  0  0  0  0  0  0  0  0  0  0
   14.0875   -4.2991   17.4997 C   0  0  0  0  0  0  0  0  0  0  0  0
   14.4584   -5.3464   18.0102 O   0  0  0  0  0  0  0  0  0  0  0  0
   12.7962   -4.1236   16.7458 C   0  0  0  0  0  0  0  0  0  0  0  0
   12.9692   -2.7644   16.1706 C   0  0  0  0  0  0  0  0  0  0  0  0
   12.0126   -2.2153   15.1965 C   0  0  0  0  0  0  0  0  0  0  0  0
   11.8719   -3.0286   14.1233 F   0  0  0  0  0  0  0  0  0  0  0  0
   12.3629   -0.9933   14.7324 F   0  0  0  0  0  0  0  0  0  0  0  0
   10.7793   -2.0800   15.7521 F   0  0  0  0  0  0  0  0  0  0  0  0
   14.0880   -2.2224   16.6431 C   0  0  0  0  0  0  0  0  0  0  0  0
   14.5157   -1.0095   16.2737 F   0  0  0  0  0  0  0  0  0  0  0  0
  1  2  1  0
  2  3  1  0
  3  4  1  1
  3  5  1  0
  3  6  1  0
  6  7  1  0
  7  8  2  0
  7  9  1  0
  9 10  1  0
 10 11  1  0
 11 12  1  0
 11 13  1  0
 11 14  1  0
 10 15  2  0
 15 16  1  0
 15  6  1  0
M  END
>  <tags>  (56) 
{'openbind_d68ev3c_c1_fragmenstein', 'fragmenstein_placed'}

>  <fragmenstein_mode>  (56) 
expansion

>  <smiles>  (56) 
C3094-P98

>  <alias>  (56) 
CC[C@@](N)(O)N1C(=O)CC(C(F)(F)F)=C1F

>  <fragmenstein_runtime>  (56) 
1.957544

>  <inchikey>  (56) 
OPFJSUYURHLHHI-UHFFFAOYSA-N

>  <HIPPO Compound ID>  (56) 
3094

>  <scratch_subdir>  (56) 
/opt/xchem-fragalysis-2/maxwin/BulkDock/SCRATCH/505734/C3094-P98

>  <fragmenstein_outcome>  (56) 
acceptable

>  <fragmenstein_error>  (56) 


>  <ref_pdb>  (56) 
97

>  <HIPPO Pose ID>  (56) 
1030

>  <Energy>  (56) 
-153.52842

$$$$
CCN1N[C@@]2(CC1(O)O)[C@@H](NC)C[C@H]1COC[C@]12F
     RDKit          3D

 19 21  0  0  0  0  0  0  0  0999 V2000
   17.3256   -4.7287   16.9256 C   0  0  0  0  0  0  0  0  0  0  0  0
   16.6997   -3.4171   16.4709 C   0  0  0  0  0  0  0  0  0  0  0  0
   15.2916   -3.5740   16.0954 N   0  0  0  0  0  0  0  0  0  0  0  0
   14.8446   -2.4017   15.3646 N   0  0  0  0  0  0  0  0  0  0  0  0
   13.5064   -2.0445   15.8735 C   0  0  1  0  0  0  0  0  0  0  0  0
   13.0734   -3.2611   16.6833 C   0  0  0  0  0  0  0  0  0  0  0  0
   14.3647   -3.8441   17.1861 C   0  0  0  0  0  0  0  0  0  0  0  0
   14.2651   -5.2268   17.3295 O   0  0  0  0  0  0  0  0  0  0  0  0
   14.7170   -3.2874   18.4262 O   0  0  0  0  0  0  0  0  0  0  0  0
   13.6610   -0.7140   16.6808 C   0  0  1  0  0  0  0  0  0  0  0  0
   14.9075   -0.5580   17.4309 N   0  0  0  0  0  0  0  0  0  0  0  0
   14.8505    0.3959   18.5130 C   0  0  0  0  0  0  0  0  0  0  0  0
   13.5277    0.4032   15.6328 C   0  0  0  0  0  0  0  0  0  0  0  0
   12.7668   -0.2087   14.4626 C   0  0  1  0  0  0  0  0  0  0  0  0
   13.6094   -0.4224   13.2046 C   0  0  0  0  0  0  0  0  0  0  0  0
   13.4645   -1.8056   12.8188 O   0  0  0  0  0  0  0  0  0  0  0  0
   12.3524   -2.3192   13.5656 C   0  0  0  0  0  0  0  0  0  0  0  0
   12.4031   -1.6162   14.8867 C   0  0  1  0  0  0  0  0  0  0  0  0
   11.1973   -1.6250   15.5155 F   0  0  0  0  0  0  0  0  0  0  0  0
  1  2  1  0
  2  3  1  0
  3  4  1  0
  4  5  1  0
  5  6  1  1
  6  7  1  0
  7  8  1  0
  7  9  1  0
  5 10  1  0
 10 11  1  6
 11 12  1  0
 10 13  1  0
 14 13  1  1
 14 15  1  0
 15 16  1  0
 16 17  1  0
 17 18  1  0
 18 19  1  1
  7  3  1  0
 18 14  1  0
 18  5  1  0
M  END
>  <tags>  (57) 
{'openbind_d68ev3c_c1_fragmenstein', 'fragmenstein_placed'}

>  <fragmenstein_mode>  (57) 
expansion

>  <smiles>  (57) 
C3101-P98

>  <alias>  (57) 
CCN1N[C@@]2(CC1(O)O)[C@@H](NC)C[C@H]1COC[C@]12F

>  <fragmenstein_runtime>  (57) 
2.76761

>  <inchikey>  (57) 
GJMHTIANTOHAPN-UHFFFAOYSA-N

>  <HIPPO Compound ID>  (57) 
3101

>  <scratch_subdir>  (57) 
/opt/xchem-fragalysis-2/maxwin/BulkDock/SCRATCH/505734/C3101-P98

>  <fragmenstein_outcome>  (57) 
acceptable

>  <fragmenstein_error>  (57) 


>  <ref_pdb>  (57) 
97

>  <HIPPO Pose ID>  (57) 
1037

>  <Energy>  (57) 
30.761698

$$$$
CCN1N=C(C(F)(F)N(O)CS(C)(=O)=O)CC1=O
     RDKit          3D

 18 18  0  0  0  0  0  0  0  0999 V2000
   17.1105   -4.6469   16.1154 C   0  0  0  0  0  0  0  0  0  0  0  0
   16.3915   -3.4121   16.6239 C   0  0  0  0  0  0  0  0  0  0  0  0
   14.9606   -3.4862   16.4314 N   0  0  0  0  0  0  0  0  0  0  0  0
   14.3049   -2.7026   15.5017 N   0  0  0  0  0  0  0  0  0  0  0  0
   13.0282   -2.9093   15.6945 C   0  0  0  0  0  0  0  0  0  0  0  0
   11.8838   -2.3254   14.8893 C   0  0  0  0  0  0  0  0  0  0  0  0
   11.9204   -2.7329   13.5930 F   0  0  0  0  0  0  0  0  0  0  0  0
   10.6870   -2.7533   15.3758 F   0  0  0  0  0  0  0  0  0  0  0  0
   11.8459   -0.8623   14.9299 N   0  0  0  0  0  0  0  0  0  0  0  0
   10.6378   -0.3458   14.2921 O   0  0  0  0  0  0  0  0  0  0  0  0
   12.9843   -0.2493   14.2248 C   0  0  0  0  0  0  0  0  0  0  0  0
   14.1500    0.5529   15.3583 S   0  0  0  0  0  0  0  0  0  0  0  0
   15.7283    0.2944   14.5985 C   0  0  0  0  0  0  0  0  0  0  0  0
   14.1320   -0.1684   16.6186 O   0  0  0  0  0  0  0  0  0  0  0  0
   13.8959    1.9835   15.3377 O   0  0  0  0  0  0  0  0  0  0  0  0
   12.7502   -3.8677   16.8054 C   0  0  0  0  0  0  0  0  0  0  0  0
   14.1215   -4.2961   17.1902 C   0  0  0  0  0  0  0  0  0  0  0  0
   14.4125   -5.1629   17.9962 O   0  0  0  0  0  0  0  0  0  0  0  0
  1  2  1  0
  2  3  1  0
  3  4  1  0
  4  5  2  0
  5  6  1  0
  6  7  1  0
  6  8  1  0
  6  9  1  0
  9 10  1  0
  9 11  1  0
 11 12  1  0
 12 13  1  0
 12 14  2  0
 12 15  2  0
  5 16  1  0
 16 17  1  0
 17 18  2  0
 17  3  1  0
M  END
>  <tags>  (58) 
{'openbind_d68ev3c_c1_fragmenstein', 'fragmenstein_placed'}

>  <fragmenstein_mode>  (58) 
expansion

>  <smiles>  (58) 
C3113-P98

>  <alias>  (58) 
CCN1N=C(C(F)(F)N(O)CS(C)(=O)=O)CC1=O

>  <fragmenstein_runtime>  (58) 
5.002759

>  <inchikey>  (58) 
PNVWLQBJDBHDMC-UHFFFAOYSA-N

>  <HIPPO Compound ID>  (58) 
3113

>  <scratch_subdir>  (58) 
/opt/xchem-fragalysis-2/maxwin/BulkDock/SCRATCH/505734/C3113-P98

>  <fragmenstein_outcome>  (58) 
acceptable

>  <fragmenstein_error>  (58) 


>  <ref_pdb>  (58) 
97

>  <HIPPO Pose ID>  (58) 
1044

>  <Energy>  (58) 
123.638543

$$$$
Cn1c(CO)nc2cccc(NC(=O)[C@@H]3COCCO3)c21
     RDKit          3D

 21 23  0  0  0  0  0  0  0  0999 V2000
   15.0558    0.5777   17.8819 C   0  0  0  0  0  0  0  0  0  0  0  0
   13.9237    0.4330   16.9972 N   0  0  0  0  0  0  0  0  0  0  0  0
   13.1920    1.4715   16.4579 C   0  0  0  0  0  0  0  0  0  0  0  0
   13.4812    2.9135   16.6891 C   0  0  0  0  0  0  0  0  0  0  0  0
   13.2430    3.1927   18.0627 O   0  0  0  0  0  0  0  0  0  0  0  0
   12.1952    1.0105   15.7307 N   0  0  0  0  0  0  0  0  0  0  0  0
   12.2773   -0.3544   15.7995 C   0  0  0  0  0  0  0  0  0  0  0  0
   11.4368   -1.3082   15.2104 C   0  0  0  0  0  0  0  0  0  0  0  0
   11.6790   -2.6613   15.4482 C   0  0  0  0  0  0  0  0  0  0  0  0
   12.7411   -3.0581   16.2602 C   0  0  0  0  0  0  0  0  0  0  0  0
   13.6129   -2.1225   16.8348 C   0  0  0  0  0  0  0  0  0  0  0  0
   14.7132   -2.5301   17.5792 N   0  0  0  0  0  0  0  0  0  0  0  0
   15.1540   -3.9576   18.0398 C   0  0  0  0  0  0  0  0  0  0  0  0
   14.6152   -4.9910   17.9264 O   0  0  0  0  0  0  0  0  0  0  0  0
   16.5702   -3.7838   18.6445 C   0  0  2  0  0  0  0  0  0  0  0  0
   17.5596   -3.4511   17.5101 C   0  0  0  0  0  0  0  0  0  0  0  0
   18.8776   -3.1927   18.0157 O   0  0  0  0  0  0  0  0  0  0  0  0
   19.2235   -4.0400   19.1229 C   0  0  0  0  0  0  0  0  0  0  0  0
   18.3456   -5.2869   19.2151 C   0  0  0  0  0  0  0  0  0  0  0  0
   16.9688   -4.9394   19.3952 O   0  0  0  0  0  0  0  0  0  0  0  0
   13.3505   -0.7600   16.5942 C   0  0  0  0  0  0  0  0  0  0  0  0
  1  2  1  0
  2  3  1  0
  3  4  1  0
  4  5  1  0
  3  6  2  0
  6  7  1  0
  7  8  2  0
  8  9  1  0
  9 10  2  0
 10 11  1  0
 11 12  1  0
 12 13  1  0
 13 14  2  0
 15 13  1  6
 15 16  1  0
 16 17  1  0
 17 18  1  0
 18 19  1  0
 19 20  1  0
 11 21  2  0
 21  2  1  0
 21  7  1  0
 20 15  1  0
M  END
>  <tags>  (59) 
{'openbind_d68ev3c_c1_fragmenstein', 'fragmenstein_placed'}

>  <fragmenstein_mode>  (59) 
expansion

>  <smiles>  (59) 
C3167-P103

>  <alias>  (59) 
Cn1c(CO)nc2cccc(NC(=O)[C@@H]3COCCO3)c21

>  <fragmenstein_runtime>  (59) 
1.823724

>  <inchikey>  (59) 
NREZOBUFQPMPJW-UHFFFAOYSA-N

>  <HIPPO Compound ID>  (59) 
3167

>  <scratch_subdir>  (59) 
/opt/xchem-fragalysis-2/maxwin/BulkDock/SCRATCH/505734/C3167-P103

>  <fragmenstein_outcome>  (59) 
acceptable

>  <fragmenstein_error>  (59) 


>  <ref_pdb>  (59) 
97

>  <HIPPO Pose ID>  (59) 
1089

>  <Energy>  (59) 
111.066484

$$$$
OCc1nc2cccc3c(O)cn1c23
     RDKit          3D

 14 16  0  0  0  0  0  0  0  0999 V2000
   13.5297    2.8074   18.1192 O   0  0  0  0  0  0  0  0  0  0  0  0
   14.3294    2.1911   17.1177 C   0  0  0  0  0  0  0  0  0  0  0  0
   13.6247    0.9774   16.6530 C   0  0  0  0  0  0  0  0  0  0  0  0
   12.5172    0.9598   15.8696 N   0  0  0  0  0  0  0  0  0  0  0  0
   12.1889   -0.3783   15.6887 C   0  0  0  0  0  0  0  0  0  0  0  0
   11.2314   -1.1599   15.0547 C   0  0  0  0  0  0  0  0  0  0  0  0
   11.3416   -2.5809   15.2340 C   0  0  0  0  0  0  0  0  0  0  0  0
   12.3465   -3.2258   16.0289 C   0  0  0  0  0  0  0  0  0  0  0  0
   13.2935   -2.3939   16.6234 C   0  0  0  0  0  0  0  0  0  0  0  0
   14.4499   -2.3410   17.4569 C   0  0  0  0  0  0  0  0  0  0  0  0
   15.0786   -3.3871   18.0148 O   0  0  0  0  0  0  0  0  0  0  0  0
   14.8487   -0.9966   17.6497 C   0  0  0  0  0  0  0  0  0  0  0  0
   13.9591   -0.2930   16.9425 N   0  0  0  0  0  0  0  0  0  0  0  0
   13.0995   -1.0860   16.3784 C   0  0  0  0  0  0  0  0  0  0  0  0
  1  2  1  0
  2  3  1  0
  3  4  2  0
  4  5  1  0
  5  6  1  0
  6  7  2  0
  7  8  1  0
  8  9  2  0
  9 10  1  0
 10 11  1  0
 10 12  2  0
 12 13  1  0
 13 14  1  0
 13  3  1  0
 14  5  2  0
 14  9  1  0
M  END
>  <tags>  (60) 
{'openbind_d68ev3c_c1_fragmenstein', 'fragmenstein_placed'}

>  <fragmenstein_mode>  (60) 
expansion

>  <smiles>  (60) 
C3169-P103

>  <alias>  (60) 
OCc1nc2cccc3c(O)cn1c23

>  <fragmenstein_runtime>  (60) 
0.879093

>  <inchikey>  (60) 
YIZNHWQTEOQSJI-UHFFFAOYSA-N

>  <HIPPO Compound ID>  (60) 
3169

>  <scratch_subdir>  (60) 
/opt/xchem-fragalysis-2/maxwin/BulkDock/SCRATCH/505734/C3169-P103

>  <fragmenstein_outcome>  (60) 
acceptable

>  <fragmenstein_error>  (60) 


>  <ref_pdb>  (60) 
97

>  <HIPPO Pose ID>  (60) 
1091

>  <Energy>  (60) 
36.204756

$$$$
Cn1c(CO)nc2c(N)cccc21
     RDKit          3D

 13 14  0  0  0  0  0  0  0  0999 V2000
   15.3285    0.3807   17.9691 C   0  0  0  0  0  0  0  0  0  0  0  0
   14.1746    0.2765   17.1091 N   0  0  0  0  0  0  0  0  0  0  0  0
   13.4396    1.3421   16.6277 C   0  0  0  0  0  0  0  0  0  0  0  0
   13.7753    2.7701   16.8757 C   0  0  0  0  0  0  0  0  0  0  0  0
   13.3797    3.0870   18.2025 O   0  0  0  0  0  0  0  0  0  0  0  0
   12.3928    0.9170   15.9484 N   0  0  0  0  0  0  0  0  0  0  0  0
   12.4661   -0.4579   15.9774 C   0  0  0  0  0  0  0  0  0  0  0  0
   11.5576   -1.3933   15.4409 C   0  0  0  0  0  0  0  0  0  0  0  0
   10.3533   -0.9742   14.8768 N   0  0  0  0  0  0  0  0  0  0  0  0
   11.8302   -2.7528   15.6250 C   0  0  0  0  0  0  0  0  0  0  0  0
   12.9630   -3.1700   16.3274 C   0  0  0  0  0  0  0  0  0  0  0  0
   13.8652   -2.2484   16.8722 C   0  0  0  0  0  0  0  0  0  0  0  0
   13.5812   -0.8899   16.6846 C   0  0  0  0  0  0  0  0  0  0  0  0
  1  2  1  0
  2  3  1  0
  3  4  1  0
  4  5  1  0
  3  6  2  0
  6  7  1  0
  7  8  2  0
  8  9  1  0
  8 10  1  0
 10 11  2  0
 11 12  1  0
 12 13  2  0
 13  2  1  0
 13  7  1  0
M  END
>  <tags>  (61) 
{'openbind_d68ev3c_c1_fragmenstein', 'fragmenstein_placed'}

>  <fragmenstein_mode>  (61) 
expansion

>  <smiles>  (61) 
C3182-P103

>  <alias>  (61) 
Cn1c(CO)nc2c(N)cccc21

>  <fragmenstein_runtime>  (61) 
0.650092

>  <inchikey>  (61) 
MNVCHPJTTIQNDF-UHFFFAOYSA-N

>  <HIPPO Compound ID>  (61) 
3182

>  <scratch_subdir>  (61) 
/opt/xchem-fragalysis-2/maxwin/BulkDock/SCRATCH/505734/C3182-P103

>  <fragmenstein_outcome>  (61) 
acceptable

>  <fragmenstein_error>  (61) 


>  <ref_pdb>  (61) 
97

>  <HIPPO Pose ID>  (61) 
1095

>  <Energy>  (61) 
33.462896

$$$$
Cc1ccc2nc(CO)n3c2c1N[C@]3(O)CS(=O)(=O)c1ccccc1
     RDKit          3D

 25 28  0  0  0  0  0  0  0  0999 V2000
   12.9811   -4.2716   16.7368 C   0  0  0  0  0  0  0  0  0  0  0  0
   12.8251   -2.8743   16.2472 C   0  0  0  0  0  0  0  0  0  0  0  0
   11.7439   -2.4888   15.3951 C   0  0  0  0  0  0  0  0  0  0  0  0
   11.4670   -1.1252   15.0600 C   0  0  0  0  0  0  0  0  0  0  0  0
   12.3053   -0.1627   15.6167 C   0  0  0  0  0  0  0  0  0  0  0  0
   12.4027    1.2167   15.6873 N   0  0  0  0  0  0  0  0  0  0  0  0
   13.4821    1.4874   16.4450 C   0  0  0  0  0  0  0  0  0  0  0  0
   13.9363    2.8213   16.8902 C   0  0  0  0  0  0  0  0  0  0  0  0
   13.4624    2.9902   18.2215 O   0  0  0  0  0  0  0  0  0  0  0  0
   14.0799    0.3342   16.8103 N   0  0  0  0  0  0  0  0  0  0  0  0
   13.3216   -0.6609   16.3395 C   0  0  0  0  0  0  0  0  0  0  0  0
   13.6885   -1.9052   16.6913 C   0  0  0  0  0  0  0  0  0  0  0  0
   14.8280   -1.8404   17.4896 N   0  0  0  0  0  0  0  0  0  0  0  0
   15.1174   -0.3303   17.6151 C   0  0  1  0  0  0  0  0  0  0  0  0
   16.3528   -0.0549   16.9822 O   0  0  0  0  0  0  0  0  0  0  0  0
   15.0357    0.1504   19.0513 C   0  0  0  0  0  0  0  0  0  0  0  0
   16.1982   -0.7021   20.0644 S   0  0  0  0  0  0  0  0  0  0  0  0
   15.6973   -2.0161   20.4094 O   0  0  0  0  0  0  0  0  0  0  0  0
   17.4994   -0.5519   19.4326 O   0  0  0  0  0  0  0  0  0  0  0  0
   16.2031    0.2547   21.5608 C   0  0  0  0  0  0  0  0  0  0  0  0
   15.1846    0.0524   22.4973 C   0  0  0  0  0  0  0  0  0  0  0  0
   15.1794    0.8011   23.6732 C   0  0  0  0  0  0  0  0  0  0  0  0
   16.1884    1.7361   23.9107 C   0  0  0  0  0  0  0  0  0  0  0  0
   17.2104    1.9219   22.9773 C   0  0  0  0  0  0  0  0  0  0  0  0
   17.2246    1.1775   21.7978 C   0  0  0  0  0  0  0  0  0  0  0  0
  1  2  1  0
  2  3  2  0
  3  4  1  0
  4  5  2  0
  5  6  1  0
  6  7  2  0
  7  8  1  0
  8  9  1  0
  7 10  1  0
 10 11  1  0
 11 12  2  0
 12 13  1  0
 13 14  1  0
 14 15  1  6
 14 16  1  0
 16 17  1  0
 17 18  2  0
 17 19  2  0
 17 20  1  0
 20 21  2  0
 21 22  1  0
 22 23  2  0
 23 24  1  0
 24 25  2  0
 12  2  1  0
 25 20  1  0
 11  5  1  0
 14 10  1  0
M  END
>  <tags>  (62) 
{'openbind_d68ev3c_c1_fragmenstein', 'fragmenstein_placed'}

>  <fragmenstein_mode>  (62) 
expansion

>  <smiles>  (62) 
C2984-P103

>  <alias>  (62) 
Cc1ccc2nc(CO)n3c2c1N[C@]3(O)CS(=O)(=O)c1ccccc1

>  <fragmenstein_runtime>  (62) 
1.446434

>  <inchikey>  (62) 
ZXGDWYDKENXYKW-UHFFFAOYSA-N

>  <HIPPO Compound ID>  (62) 
2984

>  <scratch_subdir>  (62) 
/opt/xchem-fragalysis-2/maxwin/BulkDock/SCRATCH/505734/C2984-P103

>  <fragmenstein_outcome>  (62) 
acceptable

>  <fragmenstein_error>  (62) 


>  <ref_pdb>  (62) 
97

>  <HIPPO Pose ID>  (62) 
1100

>  <Energy>  (62) 
18.863839

$$$$
CNCc1cc(F)cc(S(N)(=O)=O)c1
     RDKit          3D

 14 14  0  0  0  0  0  0  0  0999 V2000
   -9.4576  -25.5869   31.1164 C   0  0  0  0  0  0  0  0  0  0  0  0
   -9.7730  -26.1595   29.8064 N   0  0  0  0  0  0  0  0  0  0  0  0
   -9.8454  -25.1028   28.8158 C   0  0  0  0  0  0  0  0  0  0  0  0
  -10.7330  -25.3639   27.6347 C   0  0  0  0  0  0  0  0  0  0  0  0
  -10.9513  -26.6286   27.0977 C   0  0  0  0  0  0  0  0  0  0  0  0
  -11.8433  -26.7850   26.0441 C   0  0  0  0  0  0  0  0  0  0  0  0
  -12.0639  -28.0071   25.5509 F   0  0  0  0  0  0  0  0  0  0  0  0
  -12.5112  -25.6999   25.4919 C   0  0  0  0  0  0  0  0  0  0  0  0
  -12.2452  -24.4294   25.9910 C   0  0  0  0  0  0  0  0  0  0  0  0
  -13.0866  -23.0094   25.3882 S   0  0  0  0  0  0  0  0  0  0  0  0
  -14.6536  -23.5840   25.1925 N   0  0  0  0  0  0  0  0  0  0  0  0
  -12.6292  -22.7027   24.0584 O   0  0  0  0  0  0  0  0  0  0  0  0
  -13.1349  -22.0358   26.4481 O   0  0  0  0  0  0  0  0  0  0  0  0
  -11.3671  -24.2592   27.0546 C   0  0  0  0  0  0  0  0  0  0  0  0
  1  2  1  0
  2  3  1  0
  3  4  1  0
  4  5  2  0
  5  6  1  0
  6  7  1  0
  6  8  2  0
  8  9  1  0
  9 10  1  0
 10 11  1  0
 10 12  2  0
 10 13  2  0
  9 14  2  0
 14  4  1  0
M  END
>  <tags>  (63) 
{'openbind_d68ev3c_c1_fragmenstein', 'fragmenstein_placed'}

>  <fragmenstein_mode>  (63) 
expansion

>  <smiles>  (63) 
C3194-P104

>  <alias>  (63) 
CNCc1cc(F)cc(S(N)(=O)=O)c1

>  <fragmenstein_runtime>  (63) 
2.06746

>  <inchikey>  (63) 
WFMJSZYQNJOHPI-UHFFFAOYSA-N

>  <HIPPO Compound ID>  (63) 
3194

>  <scratch_subdir>  (63) 
/opt/xchem-fragalysis-2/maxwin/BulkDock/SCRATCH/505734/C3194-P104

>  <fragmenstein_outcome>  (63) 
acceptable

>  <fragmenstein_error>  (63) 


>  <ref_pdb>  (63) 
97

>  <HIPPO Pose ID>  (63) 
1103

>  <Energy>  (63) 
-69.054764

$$$$
Nc1c(F)cc(CC(F)F)cc1S(N)(=O)=O
     RDKit          3D

 16 16  0  0  0  0  0  0  0  0999 V2000
  -13.6913  -26.1270   24.5031 N   0  0  0  0  0  0  0  0  0  0  0  0
  -12.7929  -25.6596   25.4672 C   0  0  0  0  0  0  0  0  0  0  0  0
  -11.9826  -26.6025   26.1378 C   0  0  0  0  0  0  0  0  0  0  0  0
  -12.1156  -27.9031   25.8375 F   0  0  0  0  0  0  0  0  0  0  0  0
  -11.1227  -26.2515   27.1771 C   0  0  0  0  0  0  0  0  0  0  0  0
  -11.0227  -24.9161   27.5327 C   0  0  0  0  0  0  0  0  0  0  0  0
  -10.3718  -24.4363   28.8000 C   0  0  0  0  0  0  0  0  0  0  0  0
  -11.1205  -23.1873   29.3837 C   0  0  0  0  0  0  0  0  0  0  0  0
  -10.6231  -22.0429   28.8350 F   0  0  0  0  0  0  0  0  0  0  0  0
  -10.9690  -23.0722   30.7300 F   0  0  0  0  0  0  0  0  0  0  0  0
  -11.6019  -23.9672   26.7040 C   0  0  0  0  0  0  0  0  0  0  0  0
  -12.5193  -24.3168   25.7202 C   0  0  0  0  0  0  0  0  0  0  0  0
  -13.3903  -22.9254   25.0710 S   0  0  0  0  0  0  0  0  0  0  0  0
  -15.0122  -23.4170   25.0515 N   0  0  0  0  0  0  0  0  0  0  0  0
  -12.9774  -22.6456   23.7248 O   0  0  0  0  0  0  0  0  0  0  0  0
  -13.3485  -21.9131   26.1008 O   0  0  0  0  0  0  0  0  0  0  0  0
  1  2  1  0
  2  3  2  0
  3  4  1  0
  3  5  1  0
  5  6  2  0
  6  7  1  0
  7  8  1  0
  8  9  1  0
  8 10  1  0
  6 11  1  0
 11 12  2  0
 12 13  1  0
 13 14  1  0
 13 15  2  0
 13 16  2  0
 12  2  1  0
M  END
>  <tags>  (64) 
{'openbind_d68ev3c_c1_fragmenstein', 'fragmenstein_placed'}

>  <fragmenstein_mode>  (64) 
expansion

>  <smiles>  (64) 
C3200-P104

>  <alias>  (64) 
Nc1c(F)cc(CC(F)F)cc1S(N)(=O)=O

>  <fragmenstein_runtime>  (64) 
1.673253

>  <inchikey>  (64) 
XUAHHRYFRFINEZ-UHFFFAOYSA-N

>  <HIPPO Compound ID>  (64) 
3200

>  <scratch_subdir>  (64) 
/opt/xchem-fragalysis-2/maxwin/BulkDock/SCRATCH/505734/C3200-P104

>  <fragmenstein_outcome>  (64) 
acceptable

>  <fragmenstein_error>  (64) 


>  <ref_pdb>  (64) 
97

>  <HIPPO Pose ID>  (64) 
1106

>  <Energy>  (64) 
3.277946

$$$$
O=C1[C@@H](O)n2ccnc2[C@]2(CCCN2)[C@H]1O
     RDKit          3D

 16 18  0  0  0  0  0  0  0  0999 V2000
    1.5869   -6.1932   29.7794 O   0  0  0  0  0  0  0  0  0  0  0  0
    1.0010   -5.9885   30.8496 C   0  0  0  0  0  0  0  0  0  0  0  0
   -0.2849   -6.7525   31.1936 C   0  0  1  0  0  0  0  0  0  0  0  0
   -0.4661   -8.0173   30.5633 O   0  0  0  0  0  0  0  0  0  0  0  0
   -0.4505   -6.8885   32.6290 N   0  0  0  0  0  0  0  0  0  0  0  0
   -1.1582   -7.8145   33.3197 C   0  0  0  0  0  0  0  0  0  0  0  0
   -0.9544   -7.4995   34.6428 C   0  0  0  0  0  0  0  0  0  0  0  0
   -0.2334   -6.3428   34.7592 N   0  0  0  0  0  0  0  0  0  0  0  0
   -0.0351   -5.9380   33.5211 C   0  0  0  0  0  0  0  0  0  0  0  0
    0.5778   -4.6571   33.0373 C   0  0  1  0  0  0  0  0  0  0  0  0
   -0.4910   -3.6390   32.6084 C   0  0  0  0  0  0  0  0  0  0  0  0
   -0.0378   -2.3373   33.2420 C   0  0  0  0  0  0  0  0  0  0  0  0
    0.6027   -2.8039   34.5290 C   0  0  0  0  0  0  0  0  0  0  0  0
    1.3492   -4.0075   34.1387 N   0  0  0  0  0  0  0  0  0  0  0  0
    1.5523   -4.9792   31.8746 C   0  0  1  0  0  0  0  0  0  0  0  0
    2.7666   -5.5039   32.4258 O   0  0  0  0  0  0  0  0  0  0  0  0
  1  2  2  0
  2  3  1  0
  3  4  1  6
  3  5  1  0
  5  6  1  0
  6  7  2  0
  7  8  1  0
  8  9  2  0
  9 10  1  0
 10 11  1  6
 11 12  1  0
 12 13  1  0
 13 14  1  0
 10 15  1  0
 15 16  1  1
 15  2  1  0
  9  5  1  0
 14 10  1  0
M  END
>  <tags>  (65) 
{'openbind_d68ev3c_c1_fragmenstein', 'fragmenstein_placed'}

>  <fragmenstein_mode>  (65) 
expansion

>  <smiles>  (65) 
C3254-P202

>  <alias>  (65) 
O=C1[C@@H](O)n2ccnc2[C@]2(CCCN2)[C@H]1O

>  <fragmenstein_runtime>  (65) 
2.601501

>  <inchikey>  (65) 
ADFZCUDMTLCMGP-UHFFFAOYSA-N

>  <HIPPO Compound ID>  (65) 
3254

>  <scratch_subdir>  (65) 
/opt/xchem-fragalysis-2/maxwin/BulkDock/SCRATCH/505734/C3254-P202

>  <fragmenstein_outcome>  (65) 
acceptable

>  <fragmenstein_error>  (65) 


>  <ref_pdb>  (65) 
97

>  <HIPPO Pose ID>  (65) 
1133

>  <Energy>  (65) 
87.834904

$$$$
O=CN(c1ccccc1O)c1cc(O)nc2nccn12
     RDKit          3D

 20 22  0  0  0  0  0  0  0  0999 V2000
   12.5230    1.8036   13.5939 O   0  0  0  0  0  0  0  0  0  0  0  0
   13.5151    1.2135   14.0097 C   0  0  0  0  0  0  0  0  0  0  0  0
   13.8014   -0.1162   13.7391 N   0  0  0  0  0  0  0  0  0  0  0  0
   14.5827   -0.4432   12.5747 C   0  0  0  0  0  0  0  0  0  0  0  0
   15.2422   -1.6855   12.5112 C   0  0  0  0  0  0  0  0  0  0  0  0
   16.1016   -2.0018   11.4540 C   0  0  0  0  0  0  0  0  0  0  0  0
   16.3232   -1.0847   10.4359 C   0  0  0  0  0  0  0  0  0  0  0  0
   15.6621    0.1378   10.4600 C   0  0  0  0  0  0  0  0  0  0  0  0
   14.7885    0.4489   11.5061 C   0  0  0  0  0  0  0  0  0  0  0  0
   14.1425    1.6482   11.3622 O   0  0  0  0  0  0  0  0  0  0  0  0
   13.3085   -1.0737   14.6239 C   0  0  0  0  0  0  0  0  0  0  0  0
   12.3614   -1.9469   14.2345 C   0  0  0  0  0  0  0  0  0  0  0  0
   11.9205   -2.8838   15.2742 C   0  0  0  0  0  0  0  0  0  0  0  0
   10.9276   -3.6580   14.8378 O   0  0  0  0  0  0  0  0  0  0  0  0
   12.3543   -3.0249   16.4728 N   0  0  0  0  0  0  0  0  0  0  0  0
   13.3446   -2.1562   16.8204 C   0  0  0  0  0  0  0  0  0  0  0  0
   13.9834   -2.0660   17.9646 N   0  0  0  0  0  0  0  0  0  0  0  0
   14.8466   -1.0169   17.8483 C   0  0  0  0  0  0  0  0  0  0  0  0
   14.7505   -0.4426   16.6069 C   0  0  0  0  0  0  0  0  0  0  0  0
   13.7904   -1.1664   15.9388 N   0  0  0  0  0  0  0  0  0  0  0  0
  1  2  2  0
  2  3  1  0
  3  4  1  0
  4  5  2  0
  5  6  1  0
  6  7  2  0
  7  8  1  0
  8  9  2  0
  9 10  1  0
  3 11  1  0
 11 12  2  0
 12 13  1  0
 13 14  1  0
 13 15  2  0
 15 16  1  0
 16 17  2  0
 17 18  1  0
 18 19  2  0
 19 20  1  0
  9  4  1  0
 20 11  1  0
 20 16  1  0
M  END
>  <tags>  (66) 
{'openbind_d68ev3c_c1_fragmenstein', 'fragmenstein_placed'}

>  <fragmenstein_mode>  (66) 
expansion

>  <smiles>  (66) 
C3255-P106

>  <alias>  (66) 
O=CN(c1ccccc1O)c1cc(O)nc2nccn12

>  <fragmenstein_runtime>  (66) 
17.165695

>  <inchikey>  (66) 
FZRJATGRAXKHCI-UHFFFAOYSA-N

>  <HIPPO Compound ID>  (66) 
3255

>  <scratch_subdir>  (66) 
/opt/xchem-fragalysis-2/maxwin/BulkDock/SCRATCH/505734/C3255-P106

>  <fragmenstein_outcome>  (66) 
acceptable

>  <fragmenstein_error>  (66) 


>  <ref_pdb>  (66) 
97

>  <HIPPO Pose ID>  (66) 
1134

>  <Energy>  (66) 
47.553201

$$$$
N#Cc1cnc2nc(O)cc(O)n12
     RDKit          3D

 13 14  0  0  0  0  0  0  0  0999 V2000
   13.9164   -4.7412   17.5067 N   0  0  0  0  0  0  0  0  0  0  0  0
   13.3400   -3.9115   16.9386 C   0  0  0  0  0  0  0  0  0  0  0  0
   12.8007   -2.7311   16.3967 C   0  0  0  0  0  0  0  0  0  0  0  0
   11.7172   -2.5715   15.5711 C   0  0  0  0  0  0  0  0  0  0  0  0
   11.4628   -1.2435   15.3712 N   0  0  0  0  0  0  0  0  0  0  0  0
   12.4278   -0.5834   15.9772 C   0  0  0  0  0  0  0  0  0  0  0  0
   12.6207    0.7632   16.0372 N   0  0  0  0  0  0  0  0  0  0  0  0
   13.6215    1.1567   16.7485 C   0  0  0  0  0  0  0  0  0  0  0  0
   13.8724    2.4707   16.8620 O   0  0  0  0  0  0  0  0  0  0  0  0
   14.5730    0.3206   17.5018 C   0  0  0  0  0  0  0  0  0  0  0  0
   14.3592   -1.0012   17.4236 C   0  0  0  0  0  0  0  0  0  0  0  0
   15.2150   -1.8344   18.1301 O   0  0  0  0  0  0  0  0  0  0  0  0
   13.2793   -1.4664   16.6490 N   0  0  0  0  0  0  0  0  0  0  0  0
  1  2  3  0
  2  3  1  0
  3  4  2  0
  4  5  1  0
  5  6  2  0
  6  7  1  0
  7  8  2  0
  8  9  1  0
  8 10  1  0
 10 11  2  0
 11 12  1  0
 11 13  1  0
 13  3  1  0
 13  6  1  0
M  END
>  <tags>  (67) 
{'openbind_d68ev3c_c1_fragmenstein', 'fragmenstein_placed'}

>  <fragmenstein_mode>  (67) 
expansion

>  <smiles>  (67) 
C714-P106

>  <alias>  (67) 
N#Cc1cnc2nc(O)cc(O)n12

>  <fragmenstein_runtime>  (67) 
0.44284

>  <inchikey>  (67) 
XFXFHXNZHFMXRC-UHFFFAOYSA-N

>  <HIPPO Compound ID>  (67) 
714

>  <scratch_subdir>  (67) 
/opt/xchem-fragalysis-2/maxwin/BulkDock/SCRATCH/505734/C714-P106

>  <fragmenstein_outcome>  (67) 
acceptable

>  <fragmenstein_error>  (67) 


>  <ref_pdb>  (67) 
97

>  <HIPPO Pose ID>  (67) 
1138

>  <Energy>  (67) 
-5.835564

$$$$
Oc1cc(O)n2c(Cl)cnc2n1
     RDKit          3D

 12 13  0  0  0  0  0  0  0  0999 V2000
   14.0226    2.4350   17.1847 O   0  0  0  0  0  0  0  0  0  0  0  0
   13.7080    1.1626   16.9218 C   0  0  0  0  0  0  0  0  0  0  0  0
   14.6452    0.2346   17.5651 C   0  0  0  0  0  0  0  0  0  0  0  0
   14.3656   -1.0617   17.3682 C   0  0  0  0  0  0  0  0  0  0  0  0
   15.1733   -2.0175   17.9624 O   0  0  0  0  0  0  0  0  0  0  0  0
   13.2514   -1.4038   16.5821 N   0  0  0  0  0  0  0  0  0  0  0  0
   12.7008   -2.6056   16.2193 C   0  0  0  0  0  0  0  0  0  0  0  0
   13.3436   -4.0828   16.7467 Cl  0  0  0  0  0  0  0  0  0  0  0  0
   11.6130   -2.3304   15.4384 C   0  0  0  0  0  0  0  0  0  0  0  0
   11.4192   -0.9764   15.3655 N   0  0  0  0  0  0  0  0  0  0  0  0
   12.4257   -0.4235   16.0124 C   0  0  0  0  0  0  0  0  0  0  0  0
   12.6752    0.9054   16.1998 N   0  0  0  0  0  0  0  0  0  0  0  0
  1  2  1  0
  2  3  1  0
  3  4  2  0
  4  5  1  0
  4  6  1  0
  6  7  1  0
  7  8  1  0
  7  9  2  0
  9 10  1  0
 10 11  2  0
 11 12  1  0
 12  2  2  0
 11  6  1  0
M  END
>  <tags>  (68) 
{'openbind_d68ev3c_c1_fragmenstein', 'fragmenstein_placed'}

>  <fragmenstein_mode>  (68) 
expansion

>  <smiles>  (68) 
C1057-P106

>  <alias>  (68) 
Oc1cc(O)n2c(Cl)cnc2n1

>  <fragmenstein_runtime>  (68) 
0.764847

>  <inchikey>  (68) 
VSLABPNNNJOEGF-UHFFFAOYSA-N

>  <HIPPO Compound ID>  (68) 
1057

>  <scratch_subdir>  (68) 
/opt/xchem-fragalysis-2/maxwin/BulkDock/SCRATCH/505734/C1057-P106

>  <fragmenstein_outcome>  (68) 
acceptable

>  <fragmenstein_error>  (68) 


>  <ref_pdb>  (68) 
97

>  <HIPPO Pose ID>  (68) 
1139

>  <Energy>  (68) 
3.115202

$$$$
O=C(O)CON1C[C@H](F)N2[C@H](O)C[C@H](O)N[C@H]12
     RDKit          3D

 17 18  0  0  0  0  0  0  0  0999 V2000
    8.0711   -0.5862   15.9617 O   0  0  0  0  0  0  0  0  0  0  0  0
    8.7734    0.4141   15.9364 C   0  0  0  0  0  0  0  0  0  0  0  0
    8.3705    1.5709   16.4952 O   0  0  0  0  0  0  0  0  0  0  0  0
   10.1246    0.5034   15.3021 C   0  0  0  0  0  0  0  0  0  0  0  0
   10.8446   -0.5895   15.8549 O   0  0  0  0  0  0  0  0  0  0  0  0
   11.9674   -0.9126   14.9720 N   0  0  0  0  0  0  0  0  0  0  0  0
   12.0286   -2.4022   15.0398 C   0  0  0  0  0  0  0  0  0  0  0  0
   13.1297   -2.7354   16.0610 C   0  0  2  0  0  0  0  0  0  0  0  0
   12.7140   -3.6672   16.9469 F   0  0  0  0  0  0  0  0  0  0  0  0
   13.3378   -1.4764   16.7497 N   0  0  0  0  0  0  0  0  0  0  0  0
   14.6293   -1.3164   17.3622 C   0  0  2  0  0  0  0  0  0  0  0  0
   14.8092   -2.2749   18.3796 O   0  0  0  0  0  0  0  0  0  0  0  0
   14.6863    0.0851   17.9682 C   0  0  0  0  0  0  0  0  0  0  0  0
   14.3440    1.1176   16.8977 C   0  0  2  0  0  0  0  0  0  0  0  0
   14.1847    2.3921   17.4728 O   0  0  0  0  0  0  0  0  0  0  0  0
   13.1100    0.8015   16.2189 N   0  0  0  0  0  0  0  0  0  0  0  0
   13.1910   -0.5274   15.6766 C   0  0  2  0  0  0  0  0  0  0  0  0
  1  2  2  0
  2  3  1  0
  2  4  1  0
  4  5  1  0
  5  6  1  0
  6  7  1  0
  7  8  1  0
  8  9  1  1
  8 10  1  0
 10 11  1  0
 11 12  1  1
 11 13  1  0
 13 14  1  0
 14 15  1  1
 14 16  1  0
 17 16  1  1
 17  6  1  0
 17 10  1  0
M  END
>  <tags>  (69) 
{'openbind_d68ev3c_c1_fragmenstein', 'fragmenstein_placed'}

>  <fragmenstein_mode>  (69) 
expansion

>  <smiles>  (69) 
C3272-P106

>  <alias>  (69) 
O=C(O)CON1C[C@H](F)N2[C@H](O)C[C@H](O)N[C@H]12

>  <fragmenstein_runtime>  (69) 
1.10754

>  <inchikey>  (69) 
UGUAILAXRAZYQR-UHFFFAOYSA-N

>  <HIPPO Compound ID>  (69) 
3272

>  <scratch_subdir>  (69) 
/opt/xchem-fragalysis-2/maxwin/BulkDock/SCRATCH/505734/C3272-P106

>  <fragmenstein_outcome>  (69) 
acceptable

>  <fragmenstein_error>  (69) 


>  <ref_pdb>  (69) 
97

>  <HIPPO Pose ID>  (69) 
1145

>  <Energy>  (69) 
-165.550363

$$$$
O=C1CN[C@@H]2N[C@H](O)C[C@@H](O)N12
     RDKit          3D

 12 13  0  0  0  0  0  0  0  0999 V2000
   13.1807   -3.9646   16.4267 O   0  0  0  0  0  0  0  0  0  0  0  0
   12.8675   -2.8894   15.9470 C   0  0  0  0  0  0  0  0  0  0  0  0
   11.7338   -2.5885   14.9798 C   0  0  0  0  0  0  0  0  0  0  0  0
   11.8502   -1.1323   14.7666 N   0  0  0  0  0  0  0  0  0  0  0  0
   12.5000   -0.6525   15.9495 C   0  0  2  0  0  0  0  0  0  0  0  0
   13.1487    0.5889   15.6928 N   0  0  0  0  0  0  0  0  0  0  0  0
   13.9340    0.9463   16.8540 C   0  0  2  0  0  0  0  0  0  0  0  0
   14.4201    2.2515   16.6417 O   0  0  0  0  0  0  0  0  0  0  0  0
   15.0922   -0.0297   17.0066 C   0  0  0  0  0  0  0  0  0  0  0  0
   14.5707   -1.4564   17.0709 C   0  0  1  0  0  0  0  0  0  0  0  0
   14.1972   -1.7884   18.3898 O   0  0  0  0  0  0  0  0  0  0  0  0
   13.4388   -1.6668   16.2233 N   0  0  0  0  0  0  0  0  0  0  0  0
  1  2  2  0
  2  3  1  0
  3  4  1  0
  5  4  1  6
  5  6  1  0
  6  7  1  0
  7  8  1  6
  7  9  1  0
  9 10  1  0
 10 11  1  1
 10 12  1  0
 12  2  1  0
 12  5  1  0
M  END
>  <tags>  (70) 
{'openbind_d68ev3c_c1_fragmenstein', 'fragmenstein_placed'}

>  <fragmenstein_mode>  (70) 
expansion

>  <smiles>  (70) 
C3278-P106

>  <alias>  (70) 
O=C1CN[C@@H]2N[C@H](O)C[C@@H](O)N12

>  <fragmenstein_runtime>  (70) 
0.593584

>  <inchikey>  (70) 
HCXAWXRVDIHUCW-UHFFFAOYSA-N

>  <HIPPO Compound ID>  (70) 
3278

>  <scratch_subdir>  (70) 
/opt/xchem-fragalysis-2/maxwin/BulkDock/SCRATCH/505734/C3278-P106

>  <fragmenstein_outcome>  (70) 
acceptable

>  <fragmenstein_error>  (70) 


>  <ref_pdb>  (70) 
97

>  <HIPPO Pose ID>  (70) 
1148

>  <Energy>  (70) 
-210.963463

$$$$
C[C@@H]([C@H](N)O)[C@@H](O)c1ccn([C@H](C)NS)c1
     RDKit          3D

 16 16  0  0  0  0  0  0  0  0999 V2000
   14.5566    2.7412   14.6761 C   0  0  0  0  0  0  0  0  0  0  0  0
   15.0136    3.1735   16.0806 C   0  0  1  0  0  0  0  0  0  0  0  0
   15.0957    4.7199   16.1108 C   0  0  2  0  0  0  0  0  0  0  0  0
   15.6186    5.2536   17.3502 N   0  0  0  0  0  0  0  0  0  0  0  0
   13.8500    5.3444   15.8950 O   0  0  0  0  0  0  0  0  0  0  0  0
   14.1033    2.6172   17.2005 C   0  0  1  0  0  0  0  0  0  0  0  0
   12.7857    3.1658   17.0756 O   0  0  0  0  0  0  0  0  0  0  0  0
   14.0746    1.1167   17.3025 C   0  0  0  0  0  0  0  0  0  0  0  0
   14.7283    0.3573   18.3074 C   0  0  0  0  0  0  0  0  0  0  0  0
   14.4245   -0.9659   18.1026 C   0  0  0  0  0  0  0  0  0  0  0  0
   13.6123   -1.0689   16.9919 N   0  0  0  0  0  0  0  0  0  0  0  0
   13.0237   -2.3530   16.5558 C   0  0  2  0  0  0  0  0  0  0  0  0
   14.1145   -3.4027   16.3429 C   0  0  0  0  0  0  0  0  0  0  0  0
   12.2051   -2.1924   15.3418 N   0  0  0  0  0  0  0  0  0  0  0  0
   10.7251   -1.4365   15.3676 S   0  0  0  0  0  0  0  0  0  0  0  0
   13.4242    0.1983   16.4929 C   0  0  0  0  0  0  0  0  0  0  0  0
  2  1  1  6
  2  3  1  0
  3  4  1  1
  3  5  1  0
  2  6  1  0
  6  7  1  6
  6  8  1  0
  8  9  1  0
  9 10  2  0
 10 11  1  0
 11 12  1  0
 12 13  1  6
 12 14  1  0
 14 15  1  0
 11 16  1  0
 16  8  2  0
M  END
>  <tags>  (71) 
{'openbind_d68ev3c_c1_fragmenstein', 'fragmenstein_placed'}

>  <fragmenstein_mode>  (71) 
expansion

>  <smiles>  (71) 
C3279-P106

>  <alias>  (71) 
C[C@@H]([C@H](N)O)[C@@H](O)c1ccn([C@H](C)NS)c1

>  <fragmenstein_runtime>  (71) 
1.102276

>  <inchikey>  (71) 
GOCYIWAPQIBLGD-UHFFFAOYSA-N

>  <HIPPO Compound ID>  (71) 
3279

>  <scratch_subdir>  (71) 
/opt/xchem-fragalysis-2/maxwin/BulkDock/SCRATCH/505734/C3279-P106

>  <fragmenstein_outcome>  (71) 
acceptable

>  <fragmenstein_error>  (71) 


>  <ref_pdb>  (71) 
97

>  <HIPPO Pose ID>  (71) 
1149

>  <Energy>  (71) 
-4.497511

$$$$
C#C[C@@H]1C2=C(NCN2)Nc2nccn21
     RDKit          3D

 14 16  0  0  0  0  0  0  0  0999 V2000
  -10.0820  -26.8954   30.7879 C   0  0  0  0  0  0  0  0  0  0  0  0
  -10.8272  -25.9890   30.5472 C   0  0  0  0  0  0  0  0  0  0  0  0
  -11.8002  -24.9660   30.1703 C   0  0  2  0  0  0  0  0  0  0  0  0
  -11.6406  -24.5804   28.7241 C   0  0  0  0  0  0  0  0  0  0  0  0
  -11.6969  -23.2901   28.3433 C   0  0  0  0  0  0  0  0  0  0  0  0
  -11.6754  -23.2418   26.9664 N   0  0  0  0  0  0  0  0  0  0  0  0
  -11.7479  -24.5900   26.4093 C   0  0  0  0  0  0  0  0  0  0  0  0
  -11.5507  -25.4102   27.5999 N   0  0  0  0  0  0  0  0  0  0  0  0
  -11.8312  -22.2737   29.2381 N   0  0  0  0  0  0  0  0  0  0  0  0
  -11.8716  -22.5003   30.5717 C   0  0  0  0  0  0  0  0  0  0  0  0
  -11.9551  -21.6481   31.5627 N   0  0  0  0  0  0  0  0  0  0  0  0
  -12.0481  -22.4135   32.6997 C   0  0  0  0  0  0  0  0  0  0  0  0
  -11.9533  -23.7521   32.4049 C   0  0  0  0  0  0  0  0  0  0  0  0
  -11.8221  -23.7941   31.0464 N   0  0  0  0  0  0  0  0  0  0  0  0
  1  2  3  0
  3  2  1  1
  3  4  1  0
  4  5  2  0
  5  6  1  0
  6  7  1  0
  7  8  1  0
  5  9  1  0
  9 10  1  0
 10 11  2  0
 11 12  1  0
 12 13  2  0
 13 14  1  0
 14  3  1  0
  8  4  1  0
 14 10  1  0
M  END
>  <tags>  (72) 
{'openbind_d68ev3c_c1_fragmenstein', 'fragmenstein_placed'}

>  <fragmenstein_mode>  (72) 
expansion

>  <smiles>  (72) 
C3290-P107

>  <alias>  (72) 
C#C[C@@H]1C2=C(NCN2)Nc2nccn21

>  <fragmenstein_runtime>  (72) 
0.959238

>  <inchikey>  (72) 
GMTQMXAHSAWPFE-UHFFFAOYSA-N

>  <HIPPO Compound ID>  (72) 
3290

>  <scratch_subdir>  (72) 
/opt/xchem-fragalysis-2/maxwin/BulkDock/SCRATCH/505734/C3290-P107

>  <fragmenstein_outcome>  (72) 
acceptable

>  <fragmenstein_error>  (72) 


>  <ref_pdb>  (72) 
97

>  <HIPPO Pose ID>  (72) 
1154

>  <Energy>  (72) 
-17.183032

$$$$
CS(=O)(=O)C[C@H](O)c1cccc(NC(=O)[C@@H]2COCCO2)c1
     RDKit          3D

 22 23  0  0  0  0  0  0  0  0999 V2000
   13.9024    1.4794   11.4844 C   0  0  0  0  0  0  0  0  0  0  0  0
   15.0502    1.7151   12.8181 S   0  0  0  0  0  0  0  0  0  0  0  0
   16.3827    1.6601   12.2500 O   0  0  0  0  0  0  0  0  0  0  0  0
   14.6155    2.8707   13.5824 O   0  0  0  0  0  0  0  0  0  0  0  0
   14.8368    0.2771   13.8428 C   0  0  0  0  0  0  0  0  0  0  0  0
   13.5267    0.3435   14.6162 C   0  0  2  0  0  0  0  0  0  0  0  0
   13.5861    1.3321   15.6481 O   0  0  0  0  0  0  0  0  0  0  0  0
   13.2431   -0.9803   15.2914 C   0  0  0  0  0  0  0  0  0  0  0  0
   12.2288   -1.8247   14.8267 C   0  0  0  0  0  0  0  0  0  0  0  0
   11.9741   -3.0339   15.4739 C   0  0  0  0  0  0  0  0  0  0  0  0
   12.7330   -3.4203   16.5829 C   0  0  0  0  0  0  0  0  0  0  0  0
   13.7268   -2.5780   17.0704 C   0  0  0  0  0  0  0  0  0  0  0  0
   14.4336   -2.8457   18.2392 N   0  0  0  0  0  0  0  0  0  0  0  0
   14.3369   -4.0462   19.2269 C   0  0  0  0  0  0  0  0  0  0  0  0
   13.7037   -5.0283   19.1664 O   0  0  0  0  0  0  0  0  0  0  0  0
   15.3114   -3.7146   20.3800 C   0  0  2  0  0  0  0  0  0  0  0  0
   14.7919   -4.3427   21.6801 C   0  0  0  0  0  0  0  0  0  0  0  0
   15.6806   -4.1129   22.7835 O   0  0  0  0  0  0  0  0  0  0  0  0
   16.2872   -2.8143   22.7506 C   0  0  0  0  0  0  0  0  0  0  0  0
   15.5492   -1.8338   21.8415 C   0  0  0  0  0  0  0  0  0  0  0  0
   15.5408   -2.2937   20.4822 O   0  0  0  0  0  0  0  0  0  0  0  0
   13.9883   -1.3746   16.4159 C   0  0  0  0  0  0  0  0  0  0  0  0
  1  2  1  0
  2  3  2  0
  2  4  2  0
  2  5  1  0
  5  6  1  0
  6  7  1  1
  6  8  1  0
  8  9  2  0
  9 10  1  0
 10 11  2  0
 11 12  1  0
 12 13  1  0
 13 14  1  0
 14 15  2  0
 16 14  1  6
 16 17  1  0
 17 18  1  0
 18 19  1  0
 19 20  1  0
 20 21  1  0
 12 22  2  0
 22  8  1  0
 21 16  1  0
M  END
>  <tags>  (73) 
{'openbind_d68ev3c_c1_fragmenstein', 'fragmenstein_placed'}

>  <fragmenstein_mode>  (73) 
expansion

>  <smiles>  (73) 
C3326-P111

>  <alias>  (73) 
CS(=O)(=O)C[C@H](O)c1cccc(NC(=O)[C@@H]2COCCO2)c1

>  <fragmenstein_runtime>  (73) 
20.496727

>  <inchikey>  (73) 
GLHABTWKWNOIDB-UHFFFAOYSA-N

>  <HIPPO Compound ID>  (73) 
3326

>  <scratch_subdir>  (73) 
/opt/xchem-fragalysis-2/maxwin/BulkDock/SCRATCH/505734/C3326-P111

>  <fragmenstein_outcome>  (73) 
acceptable

>  <fragmenstein_error>  (73) 


>  <ref_pdb>  (73) 
97

>  <HIPPO Pose ID>  (73) 
1182

>  <Energy>  (73) 
92.326427

$$$$
CS(=O)(=O)C[C@@H](O)c1ccc(N)cc1
     RDKit          3D

 14 14  0  0  0  0  0  0  0  0999 V2000
   16.5636    1.3657   12.4226 C   0  0  0  0  0  0  0  0  0  0  0  0
   14.8863    1.9341   12.5435 S   0  0  0  0  0  0  0  0  0  0  0  0
   14.8386    3.0036   13.5241 O   0  0  0  0  0  0  0  0  0  0  0  0
   14.3931    2.1380   11.1950 O   0  0  0  0  0  0  0  0  0  0  0  0
   13.9975    0.5563   13.1988 C   0  0  0  0  0  0  0  0  0  0  0  0
   14.1165    0.4612   14.7076 C   0  0  1  0  0  0  0  0  0  0  0  0
   13.3978    1.4992   15.3681 O   0  0  0  0  0  0  0  0  0  0  0  0
   13.5481   -0.8352   15.2297 C   0  0  0  0  0  0  0  0  0  0  0  0
   14.1762   -1.4722   16.3066 C   0  0  0  0  0  0  0  0  0  0  0  0
   13.6631   -2.6621   16.8113 C   0  0  0  0  0  0  0  0  0  0  0  0
   12.5107   -3.2198   16.2609 C   0  0  0  0  0  0  0  0  0  0  0  0
   12.0482   -4.4406   16.7290 N   0  0  0  0  0  0  0  0  0  0  0  0
   11.8969   -2.6121   15.1736 C   0  0  0  0  0  0  0  0  0  0  0  0
   12.3887   -1.4094   14.6838 C   0  0  0  0  0  0  0  0  0  0  0  0
  1  2  1  0
  2  3  2  0
  2  4  2  0
  2  5  1  0
  5  6  1  0
  6  7  1  1
  6  8  1  0
  8  9  2  0
  9 10  1  0
 10 11  2  0
 11 12  1  0
 11 13  1  0
 13 14  2  0
 14  8  1  0
M  END
>  <tags>  (74) 
{'openbind_d68ev3c_c1_fragmenstein', 'fragmenstein_placed'}

>  <fragmenstein_mode>  (74) 
expansion

>  <smiles>  (74) 
C3327-P111

>  <alias>  (74) 
CS(=O)(=O)C[C@@H](O)c1ccc(N)cc1

>  <fragmenstein_runtime>  (74) 
28.386042

>  <inchikey>  (74) 
IDCYNCSSGZMFHA-UHFFFAOYSA-N

>  <HIPPO Compound ID>  (74) 
3327

>  <scratch_subdir>  (74) 
/opt/xchem-fragalysis-2/maxwin/BulkDock/SCRATCH/505734/C3327-P111

>  <fragmenstein_outcome>  (74) 
acceptable

>  <fragmenstein_error>  (74) 


>  <ref_pdb>  (74) 
97

>  <HIPPO Pose ID>  (74) 
1183

>  <Energy>  (74) 
6.028315

$$$$
CS(=O)(=O)C[C@@H](O)c1ccccc1OCN[C@@H]1CCC(=O)NC1
     RDKit          3D

 23 24  0  0  0  0  0  0  0  0999 V2000
   13.8017    1.8885   11.9516 C   0  0  0  0  0  0  0  0  0  0  0  0
   15.1886    1.5315   13.0077 S   0  0  0  0  0  0  0  0  0  0  0  0
   16.3371    1.3233   12.1463 O   0  0  0  0  0  0  0  0  0  0  0  0
   15.2247    2.5496   14.0437 O   0  0  0  0  0  0  0  0  0  0  0  0
   14.7453   -0.0329   13.7329 C   0  0  0  0  0  0  0  0  0  0  0  0
   14.2168    0.0770   15.1610 C   0  0  1  0  0  0  0  0  0  0  0  0
   13.3400    1.1948   15.3360 O   0  0  0  0  0  0  0  0  0  0  0  0
   13.4162   -1.1657   15.5126 C   0  0  0  0  0  0  0  0  0  0  0  0
   12.1294   -1.2961   14.9515 C   0  0  0  0  0  0  0  0  0  0  0  0
   11.3648   -2.4314   15.1704 C   0  0  0  0  0  0  0  0  0  0  0  0
   11.8574   -3.4365   15.9851 C   0  0  0  0  0  0  0  0  0  0  0  0
   13.1068   -3.3197   16.5797 C   0  0  0  0  0  0  0  0  0  0  0  0
   13.9139   -2.2133   16.3118 C   0  0  0  0  0  0  0  0  0  0  0  0
   15.1812   -2.0978   16.8115 O   0  0  0  0  0  0  0  0  0  0  0  0
   15.8887   -3.3194   17.0490 C   0  0  0  0  0  0  0  0  0  0  0  0
   17.3151   -3.1780   16.7619 N   0  0  0  0  0  0  0  0  0  0  0  0
   17.9222   -1.9762   17.3566 C   0  0  2  0  0  0  0  0  0  0  0  0
   19.3745   -1.8520   16.8688 C   0  0  0  0  0  0  0  0  0  0  0  0
   20.2656   -2.9783   17.3853 C   0  0  0  0  0  0  0  0  0  0  0  0
   20.0595   -3.3177   18.8482 C   0  0  0  0  0  0  0  0  0  0  0  0
   20.9144   -3.8969   19.5128 O   0  0  0  0  0  0  0  0  0  0  0  0
   18.8305   -3.0569   19.3924 N   0  0  0  0  0  0  0  0  0  0  0  0
   17.9722   -2.0008   18.8939 C   0  0  0  0  0  0  0  0  0  0  0  0
  1  2  1  0
  2  3  2  0
  2  4  2  0
  2  5  1  0
  5  6  1  0
  6  7  1  6
  6  8  1  0
  8  9  2  0
  9 10  1  0
 10 11  2  0
 11 12  1  0
 12 13  2  0
 13 14  1  0
 14 15  1  0
 15 16  1  0
 17 16  1  6
 17 18  1  0
 18 19  1  0
 19 20  1  0
 20 21  2  0
 20 22  1  0
 22 23  1  0
 13  8  1  0
 23 17  1  0
M  END
>  <tags>  (75) 
{'openbind_d68ev3c_c1_fragmenstein', 'fragmenstein_placed'}

>  <fragmenstein_mode>  (75) 
expansion

>  <smiles>  (75) 
C3329-P111

>  <alias>  (75) 
CS(=O)(=O)C[C@@H](O)c1ccccc1OCN[C@@H]1CCC(=O)NC1

>  <fragmenstein_runtime>  (75) 
42.124338

>  <inchikey>  (75) 
HUTXYZBSCSECEI-UHFFFAOYSA-N

>  <HIPPO Compound ID>  (75) 
3329

>  <scratch_subdir>  (75) 
/opt/xchem-fragalysis-2/maxwin/BulkDock/SCRATCH/505734/C3329-P111

>  <fragmenstein_outcome>  (75) 
acceptable

>  <fragmenstein_error>  (75) 


>  <ref_pdb>  (75) 
97

>  <HIPPO Pose ID>  (75) 
1185

>  <Energy>  (75) 
-1.93938

$$$$
Cc1ccccc1[C@](C)(CS(C)(=O)=O)N(C)C
     RDKit          3D

 17 17  0  0  0  0  0  0  0  0999 V2000
   13.1051    0.6230   14.7981 C   0  0  0  0  0  0  0  0  0  0  0  0
   13.1244   -0.8185   15.2297 C   0  0  0  0  0  0  0  0  0  0  0  0
   11.8977   -1.5034   15.0563 C   0  0  0  0  0  0  0  0  0  0  0  0
   11.7262   -2.8179   15.4675 C   0  0  0  0  0  0  0  0  0  0  0  0
   12.7753   -3.4779   16.0737 C   0  0  0  0  0  0  0  0  0  0  0  0
   14.0130   -2.8466   16.1886 C   0  0  0  0  0  0  0  0  0  0  0  0
   14.2344   -1.4990   15.8044 C   0  0  0  0  0  0  0  0  0  0  0  0
   15.6761   -0.8996   16.0007 C   0  0  2  0  0  0  0  0  0  0  0  0
   15.5732    0.4765   16.7270 C   0  0  0  0  0  0  0  0  0  0  0  0
   16.3032   -0.6181   14.6089 C   0  0  0  0  0  0  0  0  0  0  0  0
   16.6136   -2.0054   13.5355 S   0  0  0  0  0  0  0  0  0  0  0  0
   15.1935   -2.0864   12.4748 C   0  0  0  0  0  0  0  0  0  0  0  0
   16.7067   -3.2303   14.2990 O   0  0  0  0  0  0  0  0  0  0  0  0
   17.7206   -1.6050   12.6783 O   0  0  0  0  0  0  0  0  0  0  0  0
   16.5565   -1.7829   16.8491 N   0  0  0  0  0  0  0  0  0  0  0  0
   16.1939   -1.8849   18.2641 C   0  0  0  0  0  0  0  0  0  0  0  0
   18.0054   -1.5725   16.7603 C   0  0  0  0  0  0  0  0  0  0  0  0
  1  2  1  0
  2  3  2  0
  3  4  1  0
  4  5  2  0
  5  6  1  0
  6  7  2  0
  7  8  1  0
  8  9  1  1
  8 10  1  0
 10 11  1  0
 11 12  1  0
 11 13  2  0
 11 14  2  0
  8 15  1  0
 15 16  1  0
 15 17  1  0
  7  2  1  0
M  END
>  <tags>  (76) 
{'openbind_d68ev3c_c1_fragmenstein', 'fragmenstein_placed'}

>  <fragmenstein_mode>  (76) 
expansion

>  <smiles>  (76) 
C3330-P111

>  <alias>  (76) 
Cc1ccccc1[C@](C)(CS(C)(=O)=O)N(C)C

>  <fragmenstein_runtime>  (76) 
49.55741

>  <inchikey>  (76) 
JALPTGRPJRCTTO-UHFFFAOYSA-N

>  <HIPPO Compound ID>  (76) 
3330

>  <scratch_subdir>  (76) 
/opt/xchem-fragalysis-2/maxwin/BulkDock/SCRATCH/505734/C3330-P111

>  <fragmenstein_outcome>  (76) 
acceptable

>  <fragmenstein_error>  (76) 


>  <ref_pdb>  (76) 
97

>  <HIPPO Pose ID>  (76) 
1186

>  <Energy>  (76) 
59.243586

$$$$
CS(=O)(=O)C[C@@H](O)c1ccccc1
     RDKit          3D

 13 13  0  0  0  0  0  0  0  0999 V2000
   13.4324    1.9386   11.8406 C   0  0  0  0  0  0  0  0  0  0  0  0
   14.8757    1.6995   12.8449 S   0  0  0  0  0  0  0  0  0  0  0  0
   15.9944    1.5206   11.9384 O   0  0  0  0  0  0  0  0  0  0  0  0
   14.9120    2.7461   13.8497 O   0  0  0  0  0  0  0  0  0  0  0  0
   14.5902    0.1419   13.6500 C   0  0  0  0  0  0  0  0  0  0  0  0
   13.9609    0.2474   15.0306 C   0  0  1  0  0  0  0  0  0  0  0  0
   14.7774    0.9787   15.9406 O   0  0  0  0  0  0  0  0  0  0  0  0
   12.5204    0.6991   15.1294 C   0  0  0  0  0  0  0  0  0  0  0  0
   12.1764    1.9862   15.5755 C   0  0  0  0  0  0  0  0  0  0  0  0
   10.8466    2.3279   15.8218 C   0  0  0  0  0  0  0  0  0  0  0  0
    9.8424    1.3862   15.6298 C   0  0  0  0  0  0  0  0  0  0  0  0
   10.1587    0.1232   15.1368 C   0  0  0  0  0  0  0  0  0  0  0  0
   11.4878   -0.2171   14.8783 C   0  0  0  0  0  0  0  0  0  0  0  0
  1  2  1  0
  2  3  2  0
  2  4  2  0
  2  5  1  0
  5  6  1  0
  6  7  1  1
  6  8  1  0
  8  9  2  0
  9 10  1  0
 10 11  2  0
 11 12  1  0
 12 13  2  0
 13  8  1  0
M  END
>  <tags>  (77) 
{'openbind_d68ev3c_c1_fragmenstein', 'fragmenstein_placed'}

>  <fragmenstein_mode>  (77) 
expansion

>  <smiles>  (77) 
C92-P111

>  <alias>  (77) 
CS(=O)(=O)C[C@@H](O)c1ccccc1

>  <fragmenstein_runtime>  (77) 
47.530946

>  <inchikey>  (77) 
FVZQEVNJWREWHU-UHFFFAOYSA-N

>  <HIPPO Compound ID>  (77) 
92

>  <scratch_subdir>  (77) 
/opt/xchem-fragalysis-2/maxwin/BulkDock/SCRATCH/505734/C92-P111

>  <fragmenstein_outcome>  (77) 
acceptable

>  <fragmenstein_error>  (77) 


>  <ref_pdb>  (77) 
97

>  <HIPPO Pose ID>  (77) 
1187

>  <Energy>  (77) 
16.660403

$$$$
CCc1c(O)cc(F)c(F)c1[C@@H](O)CS(C)(=O)=O
     RDKit          3D

 18 18  0  0  0  0  0  0  0  0999 V2000
   10.4644   -0.2304   14.9427 C   0  0  0  0  0  0  0  0  0  0  0  0
   11.5463   -1.0434   14.2500 C   0  0  0  0  0  0  0  0  0  0  0  0
   12.4969   -1.6732   15.2225 C   0  0  0  0  0  0  0  0  0  0  0  0
   12.1568   -2.9240   15.7777 C   0  0  0  0  0  0  0  0  0  0  0  0
   10.9693   -3.4918   15.4193 O   0  0  0  0  0  0  0  0  0  0  0  0
   12.9986   -3.5736   16.6603 C   0  0  0  0  0  0  0  0  0  0  0  0
   14.2092   -2.9768   16.9752 C   0  0  0  0  0  0  0  0  0  0  0  0
   15.0504   -3.6150   17.8010 F   0  0  0  0  0  0  0  0  0  0  0  0
   14.5648   -1.7386   16.4381 C   0  0  0  0  0  0  0  0  0  0  0  0
   15.7608   -1.2170   16.7489 F   0  0  0  0  0  0  0  0  0  0  0  0
   13.7082   -1.0466   15.5716 C   0  0  0  0  0  0  0  0  0  0  0  0
   14.0834    0.3171   15.0237 C   0  0  1  0  0  0  0  0  0  0  0  0
   14.3764    1.1700   16.1271 O   0  0  0  0  0  0  0  0  0  0  0  0
   15.2380    0.2314   14.0348 C   0  0  0  0  0  0  0  0  0  0  0  0
   15.2798    1.6724   12.9835 S   0  0  0  0  0  0  0  0  0  0  0  0
   13.9715    1.4087   11.8075 C   0  0  0  0  0  0  0  0  0  0  0  0
   16.5241    1.6442   12.2417 O   0  0  0  0  0  0  0  0  0  0  0  0
   14.9212    2.8221   13.7942 O   0  0  0  0  0  0  0  0  0  0  0  0
  1  2  1  0
  2  3  1  0
  3  4  2  0
  4  5  1  0
  4  6  1  0
  6  7  2  0
  7  8  1  0
  7  9  1  0
  9 10  1  0
  9 11  2  0
 11 12  1  0
 12 13  1  1
 12 14  1  0
 14 15  1  0
 15 16  1  0
 15 17  2  0
 15 18  2  0
 11  3  1  0
M  END
>  <tags>  (78) 
{'openbind_d68ev3c_c1_fragmenstein', 'fragmenstein_placed'}

>  <fragmenstein_mode>  (78) 
expansion

>  <smiles>  (78) 
C3333-P111

>  <alias>  (78) 
CCc1c(O)cc(F)c(F)c1[C@@H](O)CS(C)(=O)=O

>  <fragmenstein_runtime>  (78) 
9.121105

>  <inchikey>  (78) 
ZTBUFBCEPOXSJP-UHFFFAOYSA-N

>  <HIPPO Compound ID>  (78) 
3333

>  <scratch_subdir>  (78) 
/opt/xchem-fragalysis-2/maxwin/BulkDock/SCRATCH/505734/C3333-P111

>  <fragmenstein_outcome>  (78) 
acceptable

>  <fragmenstein_error>  (78) 


>  <ref_pdb>  (78) 
97

>  <HIPPO Pose ID>  (78) 
1192

>  <Energy>  (78) 
8.045628

$$$$
CS(=O)(=O)C[C@@H](c1ccccc1)[C@H]1C[C@H](CO)CCN1CO
     RDKit          3D

 22 23  0  0  0  0  0  0  0  0999 V2000
   16.3868    1.3528   11.9580 C   0  0  0  0  0  0  0  0  0  0  0  0
   14.8467    1.6587   12.7828 S   0  0  0  0  0  0  0  0  0  0  0  0
   14.8892    3.0414   13.2089 O   0  0  0  0  0  0  0  0  0  0  0  0
   13.7948    1.1975   11.8954 O   0  0  0  0  0  0  0  0  0  0  0  0
   14.9568    0.5549   14.1996 C   0  0  0  0  0  0  0  0  0  0  0  0
   13.6417    0.4316   14.9776 C   0  0  1  0  0  0  0  0  0  0  0  0
   13.3800   -1.0072   15.4288 C   0  0  0  0  0  0  0  0  0  0  0  0
   14.3090   -1.7406   16.1801 C   0  0  0  0  0  0  0  0  0  0  0  0
   13.9930   -3.0159   16.6505 C   0  0  0  0  0  0  0  0  0  0  0  0
   12.7618   -3.5876   16.3428 C   0  0  0  0  0  0  0  0  0  0  0  0
   11.8539   -2.8972   15.5450 C   0  0  0  0  0  0  0  0  0  0  0  0
   12.1537   -1.6114   15.1009 C   0  0  0  0  0  0  0  0  0  0  0  0
   13.3909    1.4413   16.1629 C   0  0  1  0  0  0  0  0  0  0  0  0
   14.3247    1.3886   17.4068 C   0  0  0  0  0  0  0  0  0  0  0  0
   15.6453    2.1868   17.3172 C   0  0  2  0  0  0  0  0  0  0  0  0
   16.1517    2.6211   18.7075 C   0  0  0  0  0  0  0  0  0  0  0  0
   15.3090    3.6184   19.2725 O   0  0  0  0  0  0  0  0  0  0  0  0
   15.4928    3.4116   16.4174 C   0  0  0  0  0  0  0  0  0  0  0  0
   14.0367    3.8383   16.2926 C   0  0  0  0  0  0  0  0  0  0  0  0
   13.2234    2.8087   15.6401 N   0  0  0  0  0  0  0  0  0  0  0  0
   11.8356    3.2432   15.5961 C   0  0  0  0  0  0  0  0  0  0  0  0
   11.1120    2.4585   14.6730 O   0  0  0  0  0  0  0  0  0  0  0  0
  1  2  1  0
  2  3  2  0
  2  4  2  0
  2  5  1  0
  6  5  1  1
  6  7  1  0
  7  8  2  0
  8  9  1  0
  9 10  2  0
 10 11  1  0
 11 12  2  0
  6 13  1  0
 13 14  1  1
 14 15  1  0
 15 16  1  1
 16 17  1  0
 15 18  1  0
 18 19  1  0
 19 20  1  0
 20 21  1  0
 21 22  1  0
 12  7  1  0
 20 13  1  0
M  END
>  <tags>  (79) 
{'openbind_d68ev3c_c1_fragmenstein', 'fragmenstein_placed'}

>  <fragmenstein_mode>  (79) 
expansion

>  <smiles>  (79) 
C3335-P111

>  <alias>  (79) 
CS(=O)(=O)C[C@@H](c1ccccc1)[C@H]1C[C@H](CO)CCN1CO

>  <fragmenstein_runtime>  (79) 
66.548733

>  <inchikey>  (79) 
FSUDUNSUPCXSJT-UHFFFAOYSA-N

>  <HIPPO Compound ID>  (79) 
3335

>  <scratch_subdir>  (79) 
/opt/xchem-fragalysis-2/maxwin/BulkDock/SCRATCH/505734/C3335-P111

>  <fragmenstein_outcome>  (79) 
acceptable

>  <fragmenstein_error>  (79) 


>  <ref_pdb>  (79) 
97

>  <HIPPO Pose ID>  (79) 
1194

>  <Energy>  (79) 
10.604942

$$$$
CS(=O)(=O)C[C@](O)(CC(=O)O)c1ccc(F)cc1
     RDKit          3D

 18 18  0  0  0  0  0  0  0  0999 V2000
   16.3618    1.8106   11.9547 C   0  0  0  0  0  0  0  0  0  0  0  0
   14.7414    1.6765   12.6720 S   0  0  0  0  0  0  0  0  0  0  0  0
   14.4832    2.8872   13.4301 O   0  0  0  0  0  0  0  0  0  0  0  0
   13.8360    1.2906   11.6059 O   0  0  0  0  0  0  0  0  0  0  0  0
   14.8982    0.3010   13.7972 C   0  0  0  0  0  0  0  0  0  0  0  0
   14.2401    0.4889   15.1794 C   0  0  2  0  0  0  0  0  0  0  0  0
   13.0421    1.2657   15.1413 O   0  0  0  0  0  0  0  0  0  0  0  0
   15.1785    1.1211   16.2390 C   0  0  0  0  0  0  0  0  0  0  0  0
   15.7493    2.4501   15.8631 C   0  0  0  0  0  0  0  0  0  0  0  0
   16.7758    2.6058   15.2202 O   0  0  0  0  0  0  0  0  0  0  0  0
   14.9932    3.4853   16.2598 O   0  0  0  0  0  0  0  0  0  0  0  0
   13.7754   -0.9169   15.6433 C   0  0  0  0  0  0  0  0  0  0  0  0
   14.5427   -1.7118   16.5164 C   0  0  0  0  0  0  0  0  0  0  0  0
   14.1001   -2.9665   16.9268 C   0  0  0  0  0  0  0  0  0  0  0  0
   12.8970   -3.4559   16.4525 C   0  0  0  0  0  0  0  0  0  0  0  0
   12.4991   -4.6621   16.8614 F   0  0  0  0  0  0  0  0  0  0  0  0
   12.1241   -2.7239   15.5626 C   0  0  0  0  0  0  0  0  0  0  0  0
   12.5610   -1.4590   15.1603 C   0  0  0  0  0  0  0  0  0  0  0  0
  1  2  1  0
  2  3  2  0
  2  4  2  0
  2  5  1  0
  5  6  1  0
  6  7  1  6
  6  8  1  0
  8  9  1  0
  9 10  2  0
  9 11  1  0
  6 12  1  0
 12 13  2  0
 13 14  1  0
 14 15  2  0
 15 16  1  0
 15 17  1  0
 17 18  2  0
 18 12  1  0
M  END
>  <tags>  (80) 
{'openbind_d68ev3c_c1_fragmenstein', 'fragmenstein_placed'}

>  <fragmenstein_mode>  (80) 
expansion

>  <smiles>  (80) 
C3338-P111

>  <alias>  (80) 
CS(=O)(=O)C[C@](O)(CC(=O)O)c1ccc(F)cc1

>  <fragmenstein_runtime>  (80) 
33.112706

>  <inchikey>  (80) 
WOXZZJBZVWHGAC-UHFFFAOYSA-N

>  <HIPPO Compound ID>  (80) 
3338

>  <scratch_subdir>  (80) 
/opt/xchem-fragalysis-2/maxwin/BulkDock/SCRATCH/505734/C3338-P111

>  <fragmenstein_outcome>  (80) 
acceptable

>  <fragmenstein_error>  (80) 


>  <ref_pdb>  (80) 
97

>  <HIPPO Pose ID>  (80) 
1197

>  <Energy>  (80) 
-4.192249

$$$$
Cc1cccc([C@H](O)CS(C)(=O)=O)c1NC(=O)CS(=O)(=O)c1ccccc1
     RDKit          3D

 27 28  0  0  0  0  0  0  0  0999 V2000
   11.0695   -3.1121   15.0138 C   0  0  0  0  0  0  0  0  0  0  0  0
   12.3366   -2.5764   15.5928 C   0  0  0  0  0  0  0  0  0  0  0  0
   13.1682   -3.4207   16.3372 C   0  0  0  0  0  0  0  0  0  0  0  0
   14.4099   -2.9743   16.7696 C   0  0  0  0  0  0  0  0  0  0  0  0
   14.8621   -1.7156   16.3818 C   0  0  0  0  0  0  0  0  0  0  0  0
   14.0482   -0.8550   15.6254 C   0  0  0  0  0  0  0  0  0  0  0  0
   14.7070    0.3512   14.9672 C   0  0  2  0  0  0  0  0  0  0  0  0
   14.3583    1.5077   15.6963 O   0  0  0  0  0  0  0  0  0  0  0  0
   14.3922    0.4127   13.4754 C   0  0  0  0  0  0  0  0  0  0  0  0
   15.1915    1.7503   12.6352 S   0  0  0  0  0  0  0  0  0  0  0  0
   16.8617    1.2005   12.4255 C   0  0  0  0  0  0  0  0  0  0  0  0
   15.2184    2.8961   13.5276 O   0  0  0  0  0  0  0  0  0  0  0  0
   14.6060    1.8310   11.3098 O   0  0  0  0  0  0  0  0  0  0  0  0
   12.7286   -1.2522   15.3632 C   0  0  0  0  0  0  0  0  0  0  0  0
   11.7507   -0.3680   14.9171 N   0  0  0  0  0  0  0  0  0  0  0  0
   11.4098    1.0828   15.3805 C   0  0  0  0  0  0  0  0  0  0  0  0
   11.8486    1.7207   16.2564 O   0  0  0  0  0  0  0  0  0  0  0  0
   10.3240    1.6123   14.5171 C   0  0  0  0  0  0  0  0  0  0  0  0
   10.8674    3.0532   13.6636 S   0  0  0  0  0  0  0  0  0  0  0  0
    9.7721    3.4376   12.7843 O   0  0  0  0  0  0  0  0  0  0  0  0
   12.1571    2.7663   13.0745 O   0  0  0  0  0  0  0  0  0  0  0  0
   11.0345    4.3396   14.8662 C   0  0  0  0  0  0  0  0  0  0  0  0
   12.3033    4.7476   15.2804 C   0  0  0  0  0  0  0  0  0  0  0  0
   12.4212    5.7754   16.2154 C   0  0  0  0  0  0  0  0  0  0  0  0
   11.2787    6.4014   16.7163 C   0  0  0  0  0  0  0  0  0  0  0  0
   10.0129    6.0070   16.2803 C   0  0  0  0  0  0  0  0  0  0  0  0
    9.8860    4.9767   15.3486 C   0  0  0  0  0  0  0  0  0  0  0  0
  1  2  1  0
  2  3  2  0
  3  4  1  0
  4  5  2  0
  5  6  1  0
  6  7  1  0
  7  8  1  1
  7  9  1  0
  9 10  1  0
 10 11  1  0
 10 12  2  0
 10 13  2  0
  6 14  2  0
 14 15  1  0
 15 16  1  0
 16 17  2  0
 16 18  1  0
 18 19  1  0
 19 20  2  0
 19 21  2  0
 19 22  1  0
 22 23  2  0
 23 24  1  0
 24 25  2  0
 25 26  1  0
 26 27  2  0
 14  2  1  0
 27 22  1  0
M  END
>  <tags>  (81) 
{'openbind_d68ev3c_c1_fragmenstein', 'fragmenstein_placed'}

>  <fragmenstein_mode>  (81) 
expansion

>  <smiles>  (81) 
C2986-P111

>  <alias>  (81) 
Cc1cccc([C@H](O)CS(C)(=O)=O)c1NC(=O)CS(=O)(=O)c1ccccc1

>  <fragmenstein_runtime>  (81) 
211.116795

>  <inchikey>  (81) 
KBENTXAFILHOIM-UHFFFAOYSA-N

>  <HIPPO Compound ID>  (81) 
2986

>  <scratch_subdir>  (81) 
/opt/xchem-fragalysis-2/maxwin/BulkDock/SCRATCH/505734/C2986-P111

>  <fragmenstein_outcome>  (81) 
acceptable

>  <fragmenstein_error>  (81) 


>  <ref_pdb>  (81) 
97

>  <HIPPO Pose ID>  (81) 
1203

>  <Energy>  (81) 
64.227259

$$$$
C[C@](O)([C@H]1CCC[C@]2(CCCN2)C1)N1CCC(CO)CC1
     RDKit          3D

 21 23  0  0  0  0  0  0  0  0999 V2000
   10.4577    1.8264   15.8295 C   0  0  0  0  0  0  0  0  0  0  0  0
   11.8534    1.3280   15.3717 C   0  0  2  0  0  0  0  0  0  0  0  0
   11.8310    1.5504   13.9610 O   0  0  0  0  0  0  0  0  0  0  0  0
   11.9495   -0.2253   15.7047 C   0  0  1  0  0  0  0  0  0  0  0  0
   11.8485   -1.1280   14.4702 C   0  0  0  0  0  0  0  0  0  0  0  0
   11.6560   -2.5965   14.8310 C   0  0  0  0  0  0  0  0  0  0  0  0
   12.2942   -2.9882   16.1604 C   0  0  0  0  0  0  0  0  0  0  0  0
   13.5139   -2.1518   16.5547 C   0  0  1  0  0  0  0  0  0  0  0  0
   14.1197   -2.6629   17.8756 C   0  0  0  0  0  0  0  0  0  0  0  0
   15.3265   -3.4724   17.4528 C   0  0  0  0  0  0  0  0  0  0  0  0
   15.8160   -2.6995   16.2507 C   0  0  0  0  0  0  0  0  0  0  0  0
   14.5807   -2.3533   15.5557 N   0  0  0  0  0  0  0  0  0  0  0  0
   13.1218   -0.6635   16.6357 C   0  0  0  0  0  0  0  0  0  0  0  0
   12.9717    2.0739   15.9527 N   0  0  0  0  0  0  0  0  0  0  0  0
   12.6982    3.4563   16.3616 C   0  0  0  0  0  0  0  0  0  0  0  0
   13.9604    4.2128   16.8112 C   0  0  0  0  0  0  0  0  0  0  0  0
   15.0677    3.2416   17.2369 C   0  0  0  0  0  0  0  0  0  0  0  0
   16.3034    3.9611   17.7675 C   0  0  0  0  0  0  0  0  0  0  0  0
   15.9648    4.6690   18.9531 O   0  0  0  0  0  0  0  0  0  0  0  0
   15.4170    2.3166   16.0601 C   0  0  0  0  0  0  0  0  0  0  0  0
   14.2056    2.0284   15.1568 C   0  0  0  0  0  0  0  0  0  0  0  0
  2  1  1  1
  2  3  1  0
  2  4  1  0
  4  5  1  6
  5  6  1  0
  6  7  1  0
  8  7  1  6
  8  9  1  0
  9 10  1  0
 10 11  1  0
 11 12  1  0
  8 13  1  0
  2 14  1  0
 14 15  1  0
 15 16  1  0
 16 17  1  0
 17 18  1  0
 18 19  1  0
 17 20  1  0
 20 21  1  0
 13  4  1  0
 21 14  1  0
 12  8  1  0
M  END
>  <tags>  (82) 
{'openbind_d68ev3c_c1_fragmenstein', 'fragmenstein_placed'}

>  <fragmenstein_mode>  (82) 
expansion

>  <smiles>  (82) 
C3363-P113

>  <alias>  (82) 
C[C@](O)([C@H]1CCC[C@]2(CCCN2)C1)N1CCC(CO)CC1

>  <fragmenstein_runtime>  (82) 
1.776586

>  <inchikey>  (82) 
OEQQPOURFDBALJ-UHFFFAOYSA-N

>  <HIPPO Compound ID>  (82) 
3363

>  <scratch_subdir>  (82) 
/opt/xchem-fragalysis-2/maxwin/BulkDock/SCRATCH/505734/C3363-P113

>  <fragmenstein_outcome>  (82) 
acceptable

>  <fragmenstein_error>  (82) 


>  <ref_pdb>  (82) 
97

>  <HIPPO Pose ID>  (82) 
1223

>  <Energy>  (82) 
19.828364

$$$$
C[C@@H]1CCCN([S@@](C)(=O)=NCCN(C(=O)NC(C)(CO)CO)c2ccccc2)[C@@H]1CO
     RDKit          3D

 31 32  0  0  0  0  0  0  0  0999 V2000
   14.7755   -6.6060   22.0978 C   0  0  0  0  0  0  0  0  0  0  0  0
   15.9004   -6.1328   21.1739 C   0  0  2  0  0  0  0  0  0  0  0  0
   17.0788   -5.5821   21.9971 C   0  0  0  0  0  0  0  0  0  0  0  0
   17.1354   -4.0700   21.9357 C   0  0  0  0  0  0  0  0  0  0  0  0
   17.2249   -3.5775   20.4902 C   0  0  0  0  0  0  0  0  0  0  0  0
   16.5890   -4.4357   19.4809 N   0  0  0  0  0  0  0  0  0  0  0  0
   16.6048   -3.9427   17.8333 S   0  0  1  0  0  0  0  0  0  0  0  0
   18.0735   -4.6146   17.1159 C   0  0  0  0  0  0  0  0  0  0  0  0
   15.4935   -4.6281   17.2133 O   0  0  0  0  0  0  0  0  0  0  0  0
   16.7917   -2.4226   17.9060 N   0  0  0  0  0  0  0  0  0  0  0  0
   16.7188   -1.5929   16.6842 C   0  0  0  0  0  0  0  0  0  0  0  0
   15.2775   -1.4882   16.1246 C   0  0  0  0  0  0  0  0  0  0  0  0
   14.2596   -1.0990   17.3274 N   0  0  0  0  0  0  0  0  0  0  0  0
   14.5041    0.3161   17.8182 C   0  0  0  0  0  0  0  0  0  0  0  0
   14.0481    1.3038   17.4756 O   0  0  0  0  0  0  0  0  0  0  0  0
   15.4656    0.0152   18.9744 N   0  0  0  0  0  0  0  0  0  0  0  0
   15.9894    0.8842   20.0151 C   0  0  0  0  0  0  0  0  0  0  0  0
   17.4554    0.5187   20.2854 C   0  0  0  0  0  0  0  0  0  0  0  0
   15.1265    0.6314   21.2776 C   0  0  0  0  0  0  0  0  0  0  0  0
   15.0495   -0.7724   21.5796 O   0  0  0  0  0  0  0  0  0  0  0  0
   15.8806    2.3653   19.5877 C   0  0  0  0  0  0  0  0  0  0  0  0
   16.4858    3.2425   20.5311 O   0  0  0  0  0  0  0  0  0  0  0  0
   13.3147   -1.6042   16.3607 C   0  0  0  0  0  0  0  0  0  0  0  0
   12.6123   -0.7433   15.5083 C   0  0  0  0  0  0  0  0  0  0  0  0
   11.5434   -1.2348   14.7774 C   0  0  0  0  0  0  0  0  0  0  0  0
   11.1453   -2.5592   14.9445 C   0  0  0  0  0  0  0  0  0  0  0  0
   11.7977   -3.3994   15.8335 C   0  0  0  0  0  0  0  0  0  0  0  0
   12.8645   -2.9172   16.5612 C   0  0  0  0  0  0  0  0  0  0  0  0
   15.4373   -5.1731   20.0289 C   0  0  2  0  0  0  0  0  0  0  0  0
   14.2202   -4.2592   20.3225 C   0  0  0  0  0  0  0  0  0  0  0  0
   13.0150   -5.0281   20.2991 O   0  0  0  0  0  0  0  0  0  0  0  0
  2  1  1  1
  2  3  1  0
  3  4  1  0
  4  5  1  0
  5  6  1  0
  6  7  1  0
  7  8  1  6
  7  9  2  0
  7 10  2  0
 10 11  1  0
 11 12  1  0
 12 13  1  0
 13 14  1  0
 14 15  2  0
 14 16  1  0
 16 17  1  0
 17 18  1  0
 17 19  1  0
 19 20  1  0
 17 21  1  0
 21 22  1  0
 13 23  1  0
 23 24  2  0
 24 25  1  0
 25 26  2  0
 26 27  1  0
 27 28  2  0
  6 29  1  0
 29 30  1  1
 30 31  1  0
 29  2  1  0
 28 23  1  0
M  END
>  <tags>  (83) 
{'openbind_d68ev3c_c1_fragmenstein', 'fragmenstein_placed'}

>  <fragmenstein_mode>  (83) 
expansion

>  <smiles>  (83) 
C1140-P117

>  <alias>  (83) 
C[C@@H]1CCCN([S@@](C)(=O)=NCCN(C(=O)NC(C)(CO)CO)c2ccccc2)[C@@H]1CO

>  <fragmenstein_runtime>  (83) 
6.059837

>  <inchikey>  (83) 
UGGVYPVGSADXJX-UHFFFAOYSA-N

>  <HIPPO Compound ID>  (83) 
1140

>  <scratch_subdir>  (83) 
/opt/xchem-fragalysis-2/maxwin/BulkDock/SCRATCH/505734/C1140-P117

>  <fragmenstein_outcome>  (83) 
acceptable

>  <fragmenstein_error>  (83) 


>  <ref_pdb>  (83) 
97

>  <HIPPO Pose ID>  (83) 
1254

>  <Energy>  (83) 
45.362495

$$$$
Nc1ccc([S@@](=O)(=NCNC2(O)CCN(Cc3ccsc3)CC2)NCCc2nccc(O)n2)cn1
     RDKit          3D

 35 38  0  0  0  0  0  0  0  0999 V2000
    4.5831   -4.0446   33.5092 N   0  0  0  0  0  0  0  0  0  0  0  0
    3.2716   -3.8806   33.0720 C   0  0  0  0  0  0  0  0  0  0  0  0
    2.4960   -4.9834   32.7418 C   0  0  0  0  0  0  0  0  0  0  0  0
    1.1982   -4.7853   32.2770 C   0  0  0  0  0  0  0  0  0  0  0  0
    0.7256   -3.4836   32.1552 C   0  0  0  0  0  0  0  0  0  0  0  0
   -0.9034   -3.1610   31.6101 S   0  0  1  0  0  0  0  0  0  0  0  0
   -1.6490   -4.3948   31.6608 O   0  0  0  0  0  0  0  0  0  0  0  0
   -1.4287   -1.8829   32.2599 N   0  0  0  0  0  0  0  0  0  0  0  0
   -2.2488   -2.0434   33.4408 C   0  0  0  0  0  0  0  0  0  0  0  0
   -3.2391   -0.9927   33.3252 N   0  0  0  0  0  0  0  0  0  0  0  0
   -4.4990   -1.3311   33.9701 C   0  0  0  0  0  0  0  0  0  0  0  0
   -5.0642   -2.4672   33.3172 O   0  0  0  0  0  0  0  0  0  0  0  0
   -4.3242   -1.6579   35.4639 C   0  0  0  0  0  0  0  0  0  0  0  0
   -5.0770   -0.6934   36.3743 C   0  0  0  0  0  0  0  0  0  0  0  0
   -6.4970   -0.6251   36.0351 N   0  0  0  0  0  0  0  0  0  0  0  0
   -7.1914    0.3499   36.8839 C   0  0  0  0  0  0  0  0  0  0  0  0
   -8.5951   -0.1005   37.2037 C   0  0  0  0  0  0  0  0  0  0  0  0
   -9.3911    0.5302   38.2228 C   0  0  0  0  0  0  0  0  0  0  0  0
  -10.6262   -0.0558   38.3818 C   0  0  0  0  0  0  0  0  0  0  0  0
  -10.8528   -1.3654   37.3111 S   0  0  0  0  0  0  0  0  0  0  0  0
   -9.3033   -1.1418   36.6265 C   0  0  0  0  0  0  0  0  0  0  0  0
   -6.7395   -0.3776   34.6053 C   0  0  0  0  0  0  0  0  0  0  0  0
   -5.4705   -0.1592   33.7845 C   0  0  0  0  0  0  0  0  0  0  0  0
   -0.9610   -2.7459   29.9859 N   0  0  0  0  0  0  0  0  0  0  0  0
    0.2083   -2.5218   29.1344 C   0  0  0  0  0  0  0  0  0  0  0  0
    0.1778   -1.1686   28.4045 C   0  0  0  0  0  0  0  0  0  0  0  0
    0.2097   -0.0426   29.3932 C   0  0  0  0  0  0  0  0  0  0  0  0
   -0.9510    0.1938   30.0342 N   0  0  0  0  0  0  0  0  0  0  0  0
   -0.8745    0.9392   31.1464 C   0  0  0  0  0  0  0  0  0  0  0  0
    0.2685    1.5509   31.5686 C   0  0  0  0  0  0  0  0  0  0  0  0
    1.3657    1.2965   30.7930 C   0  0  0  0  0  0  0  0  0  0  0  0
    2.5690    1.8324   31.1179 O   0  0  0  0  0  0  0  0  0  0  0  0
    1.3959    0.4919   29.7271 N   0  0  0  0  0  0  0  0  0  0  0  0
    1.5581   -2.4399   32.5134 C   0  0  0  0  0  0  0  0  0  0  0  0
    2.8274   -2.6165   32.9614 N   0  0  0  0  0  0  0  0  0  0  0  0
  1  2  1  0
  2  3  2  0
  3  4  1  0
  4  5  2  0
  5  6  1  0
  6  7  2  0
  6  8  2  0
  8  9  1  0
  9 10  1  0
 10 11  1  0
 11 12  1  0
 11 13  1  0
 13 14  1  0
 14 15  1  0
 15 16  1  0
 16 17  1  0
 17 18  1  0
 18 19  2  0
 19 20  1  0
 20 21  1  0
 15 22  1  0
 22 23  1  0
  6 24  1  6
 24 25  1  0
 25 26  1  0
 26 27  1  0
 27 28  2  0
 28 29  1  0
 29 30  2  0
 30 31  1  0
 31 32  1  0
 31 33  2  0
  5 34  1  0
 34 35  2  0
 35  2  1  0
 23 11  1  0
 33 27  1  0
 21 17  2  0
M  END
>  <tags>  (84) 
{'openbind_d68ev3c_c1_fragmenstein', 'fragmenstein_placed'}

>  <fragmenstein_mode>  (84) 
expansion

>  <smiles>  (84) 
C3530-P121

>  <alias>  (84) 
Nc1ccc([S@@](=O)(=NCNC2(O)CCN(Cc3ccsc3)CC2)NCCc2nccc(O)n2)cn1

>  <fragmenstein_runtime>  (84) 
13.817882

>  <inchikey>  (84) 
QGEIOIIYGMZVIM-UHFFFAOYSA-N

>  <HIPPO Compound ID>  (84) 
3530

>  <scratch_subdir>  (84) 
/opt/xchem-fragalysis-2/maxwin/BulkDock/SCRATCH/505734/C3530-P121

>  <fragmenstein_outcome>  (84) 
acceptable

>  <fragmenstein_error>  (84) 


>  <ref_pdb>  (84) 
97

>  <HIPPO Pose ID>  (84) 
1323

>  <Energy>  (84) 
-270.976305

$$$$
CS(=O)(=O)C[C@@H](O)c1cn[nH]c1N
     RDKit          3D

 13 13  0  0  0  0  0  0  0  0999 V2000
   17.4913   -3.5912   18.2449 C   0  0  0  0  0  0  0  0  0  0  0  0
   15.9669   -3.6843   17.3396 S   0  0  0  0  0  0  0  0  0  0  0  0
   15.0553   -4.5000   18.1200 O   0  0  0  0  0  0  0  0  0  0  0  0
   16.3046   -4.0579   15.9804 O   0  0  0  0  0  0  0  0  0  0  0  0
   15.3888   -2.0007   17.3610 C   0  0  0  0  0  0  0  0  0  0  0  0
   14.6722   -1.5540   16.0979 C   0  0  1  0  0  0  0  0  0  0  0  0
   15.5462   -1.6302   14.9667 O   0  0  0  0  0  0  0  0  0  0  0  0
   13.3163   -2.0936   15.8011 C   0  0  0  0  0  0  0  0  0  0  0  0
   12.6152   -3.1670   16.3954 C   0  0  0  0  0  0  0  0  0  0  0  0
   11.3983   -3.3423   15.8799 N   0  0  0  0  0  0  0  0  0  0  0  0
   11.3167   -2.4155   14.9167 N   0  0  0  0  0  0  0  0  0  0  0  0
   12.4141   -1.6043   14.8745 C   0  0  0  0  0  0  0  0  0  0  0  0
   12.4607   -0.5619   14.0233 N   0  0  0  0  0  0  0  0  0  0  0  0
  1  2  1  0
  2  3  2  0
  2  4  2  0
  2  5  1  0
  5  6  1  0
  6  7  1  6
  6  8  1  0
  8  9  1  0
  9 10  2  0
 10 11  1  0
 11 12  1  0
 12 13  1  0
 12  8  2  0
M  END
>  <tags>  (85) 
{'openbind_d68ev3c_c1_fragmenstein', 'fragmenstein_placed'}

>  <fragmenstein_mode>  (85) 
expansion

>  <smiles>  (85) 
C3562-P122

>  <alias>  (85) 
CS(=O)(=O)C[C@@H](O)c1cn[nH]c1N

>  <fragmenstein_runtime>  (85) 
1.013063

>  <inchikey>  (85) 
LJDJWLIBMTWRMY-UHFFFAOYSA-N

>  <HIPPO Compound ID>  (85) 
3562

>  <scratch_subdir>  (85) 
/opt/xchem-fragalysis-2/maxwin/BulkDock/SCRATCH/505734/C3562-P122

>  <fragmenstein_outcome>  (85) 
acceptable

>  <fragmenstein_error>  (85) 


>  <ref_pdb>  (85) 
97

>  <HIPPO Pose ID>  (85) 
1331

>  <Energy>  (85) 
10.554551

$$$$
CNC(=O)Cc1ccc(-c2cn3c(N)nnc3cc2CNS(=O)(=O)c2ccns2)cc1
     RDKit          3D

 31 34  0  0  0  0  0  0  0  0999 V2000
    2.0427    2.7106   34.1348 C   0  0  0  0  0  0  0  0  0  0  0  0
    2.7861    1.5282   34.4597 N   0  0  0  0  0  0  0  0  0  0  0  0
    4.1381    1.0040   33.9059 C   0  0  0  0  0  0  0  0  0  0  0  0
    4.8896    1.4927   33.1576 O   0  0  0  0  0  0  0  0  0  0  0  0
    4.3936   -0.3573   34.5582 C   0  0  0  0  0  0  0  0  0  0  0  0
    3.4741   -1.4465   34.0574 C   0  0  0  0  0  0  0  0  0  0  0  0
    2.8128   -2.2906   34.9553 C   0  0  0  0  0  0  0  0  0  0  0  0
    1.9491   -3.2929   34.4949 C   0  0  0  0  0  0  0  0  0  0  0  0
    1.7426   -3.4936   33.1251 C   0  0  0  0  0  0  0  0  0  0  0  0
    0.8254   -4.5329   32.5841 C   0  0  0  0  0  0  0  0  0  0  0  0
    0.4958   -5.6424   33.2800 C   0  0  0  0  0  0  0  0  0  0  0  0
   -0.2445   -6.6400   32.6494 N   0  0  0  0  0  0  0  0  0  0  0  0
   -0.9730   -7.6957   33.1501 C   0  0  0  0  0  0  0  0  0  0  0  0
   -1.1970   -7.8757   34.4742 N   0  0  0  0  0  0  0  0  0  0  0  0
   -1.4361   -8.4084   32.1439 N   0  0  0  0  0  0  0  0  0  0  0  0
   -1.0953   -7.7866   30.9635 N   0  0  0  0  0  0  0  0  0  0  0  0
   -0.4414   -6.6913   31.2789 C   0  0  0  0  0  0  0  0  0  0  0  0
   -0.1392   -5.5137   30.5380 C   0  0  0  0  0  0  0  0  0  0  0  0
    0.1877   -4.4113   31.2508 C   0  0  0  0  0  0  0  0  0  0  0  0
   -0.6138   -3.1502   31.0252 C   0  0  0  0  0  0  0  0  0  0  0  0
   -0.1528   -2.3658   29.8771 N   0  0  0  0  0  0  0  0  0  0  0  0
   -1.3456   -1.2182   29.4617 S   0  0  0  0  0  0  0  0  0  0  0  0
   -2.0372   -0.8401   30.6783 O   0  0  0  0  0  0  0  0  0  0  0  0
   -2.0114   -1.7868   28.3238 O   0  0  0  0  0  0  0  0  0  0  0  0
   -0.5910    0.2525   28.9478 C   0  0  0  0  0  0  0  0  0  0  0  0
    0.3844    1.0638   29.4840 C   0  0  0  0  0  0  0  0  0  0  0  0
    0.5232    2.2333   28.6887 C   0  0  0  0  0  0  0  0  0  0  0  0
   -0.2384    2.3195   27.6011 N   0  0  0  0  0  0  0  0  0  0  0  0
   -1.2297    0.9928   27.5554 S   0  0  0  0  0  0  0  0  0  0  0  0
    2.4466   -2.6677   32.2325 C   0  0  0  0  0  0  0  0  0  0  0  0
    3.2944   -1.6559   32.6884 C   0  0  0  0  0  0  0  0  0  0  0  0
  1  2  1  0
  2  3  1  0
  3  4  2  0
  3  5  1  0
  5  6  1  0
  6  7  2  0
  7  8  1  0
  8  9  2  0
  9 10  1  0
 10 11  2  0
 11 12  1  0
 12 13  1  0
 13 14  1  0
 13 15  2  0
 15 16  1  0
 16 17  2  0
 17 18  1  0
 18 19  2  0
 19 20  1  0
 20 21  1  0
 21 22  1  0
 22 23  2  0
 22 24  2  0
 22 25  1  0
 25 26  2  0
 26 27  1  0
 27 28  2  0
 28 29  1  0
  9 30  1  0
 30 31  2  0
 31  6  1  0
 19 10  1  0
 29 25  1  0
 17 12  1  0
M  END
>  <tags>  (86) 
{'openbind_d68ev3c_c1_fragmenstein', 'fragmenstein_placed'}

>  <fragmenstein_mode>  (86) 
expansion

>  <smiles>  (86) 
C3689-P128

>  <alias>  (86) 
CNC(=O)Cc1ccc(-c2cn3c(N)nnc3cc2CNS(=O)(=O)c2ccns2)cc1

>  <fragmenstein_runtime>  (86) 
3.963115

>  <inchikey>  (86) 
KGPMGOMPDIDNHP-UHFFFAOYSA-N

>  <HIPPO Compound ID>  (86) 
3689

>  <scratch_subdir>  (86) 
/opt/xchem-fragalysis-2/maxwin/BulkDock/SCRATCH/505734/C3689-P128

>  <fragmenstein_outcome>  (86) 
acceptable

>  <fragmenstein_error>  (86) 


>  <ref_pdb>  (86) 
97

>  <HIPPO Pose ID>  (86) 
1421

>  <Energy>  (86) 
5.163754

$$$$
CS(=O)(=O)Nc1cccc([C@@H]2C[C@]3(CCNC3)c3nnc(N)n3[C@H]2N)c1
     RDKit          3D

 26 29  0  0  0  0  0  0  0  0999 V2000
    7.2410   -2.3737   35.6585 C   0  0  0  0  0  0  0  0  0  0  0  0
    6.0696   -3.5991   36.1989 S   0  0  0  0  0  0  0  0  0  0  0  0
    5.9337   -4.6141   35.1769 O   0  0  0  0  0  0  0  0  0  0  0  0
    6.3996   -3.9567   37.5620 O   0  0  0  0  0  0  0  0  0  0  0  0
    4.6607   -2.6790   36.3063 N   0  0  0  0  0  0  0  0  0  0  0  0
    3.8091   -2.5712   35.1727 C   0  0  0  0  0  0  0  0  0  0  0  0
    3.5652   -1.3042   34.6538 C   0  0  0  0  0  0  0  0  0  0  0  0
    2.7015   -1.1561   33.5749 C   0  0  0  0  0  0  0  0  0  0  0  0
    2.0758   -2.2756   33.0268 C   0  0  0  0  0  0  0  0  0  0  0  0
    2.2939   -3.5625   33.5483 C   0  0  0  0  0  0  0  0  0  0  0  0
    1.7203   -4.8312   32.9263 C   0  0  2  0  0  0  0  0  0  0  0  0
    1.5768   -4.7034   31.3902 C   0  0  0  0  0  0  0  0  0  0  0  0
    0.1228   -4.7784   30.8905 C   0  0  1  0  0  0  0  0  0  0  0  0
   -0.7608   -3.5745   31.2900 C   0  0  0  0  0  0  0  0  0  0  0  0
   -0.6765   -2.5795   30.1356 C   0  0  0  0  0  0  0  0  0  0  0  0
    0.2584   -3.1725   29.1832 N   0  0  0  0  0  0  0  0  0  0  0  0
    0.1227   -4.6214   29.3808 C   0  0  0  0  0  0  0  0  0  0  0  0
   -0.4220   -6.0553   31.4410 C   0  0  0  0  0  0  0  0  0  0  0  0
   -1.0043   -7.0862   30.8715 N   0  0  0  0  0  0  0  0  0  0  0  0
   -1.4393   -7.9170   31.8874 N   0  0  0  0  0  0  0  0  0  0  0  0
   -1.0887   -7.3858   33.0414 C   0  0  0  0  0  0  0  0  0  0  0  0
   -1.4004   -7.7731   34.2917 N   0  0  0  0  0  0  0  0  0  0  0  0
   -0.3080   -6.2946   32.7920 N   0  0  0  0  0  0  0  0  0  0  0  0
    0.4496   -5.3967   33.6630 C   0  0  1  0  0  0  0  0  0  0  0  0
    0.8205   -6.1285   34.8888 N   0  0  0  0  0  0  0  0  0  0  0  0
    3.1526   -3.6854   34.6497 C   0  0  0  0  0  0  0  0  0  0  0  0
  1  2  1  0
  2  3  2  0
  2  4  2  0
  2  5  1  0
  5  6  1  0
  6  7  2  0
  7  8  1  0
  8  9  2  0
  9 10  1  0
 11 10  1  1
 11 12  1  0
 13 12  1  1
 13 14  1  0
 14 15  1  0
 15 16  1  0
 16 17  1  0
 13 18  1  0
 18 19  2  0
 19 20  1  0
 20 21  2  0
 21 22  1  0
 21 23  1  0
 23 24  1  0
 24 25  1  1
 10 26  2  0
 26  6  1  0
 24 11  1  0
 17 13  1  0
 23 18  1  0
M  END
>  <tags>  (87) 
{'openbind_d68ev3c_c1_fragmenstein', 'fragmenstein_placed'}

>  <fragmenstein_mode>  (87) 
expansion

>  <smiles>  (87) 
C3698-P128

>  <alias>  (87) 
CS(=O)(=O)Nc1cccc([C@@H]2C[C@]3(CCNC3)c3nnc(N)n3[C@H]2N)c1

>  <fragmenstein_runtime>  (87) 
2.452288

>  <inchikey>  (87) 
VEDVSPPIDXAVBQ-UHFFFAOYSA-N

>  <HIPPO Compound ID>  (87) 
3698

>  <scratch_subdir>  (87) 
/opt/xchem-fragalysis-2/maxwin/BulkDock/SCRATCH/505734/C3698-P128

>  <fragmenstein_outcome>  (87) 
acceptable

>  <fragmenstein_error>  (87) 


>  <ref_pdb>  (87) 
97

>  <HIPPO Pose ID>  (87) 
1427

>  <Energy>  (87) 
5.644593

$$$$
CS(=O)(=O)Nc1cccc(-c2cn3c(N)nnc3cc2NCc2n[nH]c(-c3ccccc3)n2)c1
     RDKit          3D

 34 38  0  0  0  0  0  0  0  0999 V2000
    4.8565   -1.8192   37.9438 C   0  0  0  0  0  0  0  0  0  0  0  0
    3.3359   -2.7134   37.7121 S   0  0  0  0  0  0  0  0  0  0  0  0
    3.6291   -4.0274   37.1843 O   0  0  0  0  0  0  0  0  0  0  0  0
    2.5402   -2.5460   38.9097 O   0  0  0  0  0  0  0  0  0  0  0  0
    2.5711   -1.7653   36.5323 N   0  0  0  0  0  0  0  0  0  0  0  0
    2.6914   -2.2072   35.1819 C   0  0  0  0  0  0  0  0  0  0  0  0
    3.7314   -1.7170   34.3981 C   0  0  0  0  0  0  0  0  0  0  0  0
    3.8957   -2.1934   33.1032 C   0  0  0  0  0  0  0  0  0  0  0  0
    3.0326   -3.1722   32.6112 C   0  0  0  0  0  0  0  0  0  0  0  0
    1.9552   -3.6483   33.3796 C   0  0  0  0  0  0  0  0  0  0  0  0
    0.9924   -4.6042   32.7795 C   0  0  0  0  0  0  0  0  0  0  0  0
    0.5077   -5.6408   33.4977 C   0  0  0  0  0  0  0  0  0  0  0  0
   -0.3147   -6.5794   32.8756 N   0  0  0  0  0  0  0  0  0  0  0  0
   -1.0640   -7.6232   33.3747 C   0  0  0  0  0  0  0  0  0  0  0  0
   -1.2326   -7.8547   34.6979 N   0  0  0  0  0  0  0  0  0  0  0  0
   -1.5766   -8.3022   32.3692 N   0  0  0  0  0  0  0  0  0  0  0  0
   -1.2486   -7.6706   31.1933 N   0  0  0  0  0  0  0  0  0  0  0  0
   -0.5425   -6.6088   31.5104 C   0  0  0  0  0  0  0  0  0  0  0  0
   -0.1248   -5.4816   30.7673 C   0  0  0  0  0  0  0  0  0  0  0  0
    0.4759   -4.4531   31.4005 C   0  0  0  0  0  0  0  0  0  0  0  0
    0.4585   -3.1919   30.8352 N   0  0  0  0  0  0  0  0  0  0  0  0
   -0.7329   -2.3284   31.0236 C   0  0  0  0  0  0  0  0  0  0  0  0
   -0.9601   -1.3524   29.9175 C   0  0  0  0  0  0  0  0  0  0  0  0
   -1.4548   -1.7516   28.7467 N   0  0  0  0  0  0  0  0  0  0  0  0
   -1.3408   -0.6462   28.0048 N   0  0  0  0  0  0  0  0  0  0  0  0
   -0.8718    0.4068   28.7490 C   0  0  0  0  0  0  0  0  0  0  0  0
   -0.6877    1.7538   28.2209 C   0  0  0  0  0  0  0  0  0  0  0  0
   -1.5350    2.2748   27.2321 C   0  0  0  0  0  0  0  0  0  0  0  0
   -1.3600    3.5792   26.7656 C   0  0  0  0  0  0  0  0  0  0  0  0
   -0.3361    4.3729   27.2771 C   0  0  0  0  0  0  0  0  0  0  0  0
    0.5124    3.8669   28.2589 C   0  0  0  0  0  0  0  0  0  0  0  0
    0.3349    2.5648   28.7308 C   0  0  0  0  0  0  0  0  0  0  0  0
   -0.5945   -0.0307   29.9687 N   0  0  0  0  0  0  0  0  0  0  0  0
    1.8027   -3.1609   34.6801 C   0  0  0  0  0  0  0  0  0  0  0  0
  1  2  1  0
  2  3  2  0
  2  4  2  0
  2  5  1  0
  5  6  1  0
  6  7  2  0
  7  8  1  0
  8  9  2  0
  9 10  1  0
 10 11  1  0
 11 12  2  0
 12 13  1  0
 13 14  1  0
 14 15  1  0
 14 16  2  0
 16 17  1  0
 17 18  2  0
 18 19  1  0
 19 20  2  0
 20 21  1  0
 21 22  1  0
 22 23  1  0
 23 24  2  0
 24 25  1  0
 25 26  1  0
 26 27  1  0
 27 28  2  0
 28 29  1  0
 29 30  2  0
 30 31  1  0
 31 32  2  0
 26 33  2  0
 10 34  2  0
 34  6  1  0
 20 11  1  0
 33 23  1  0
 18 13  1  0
 32 27  1  0
M  END
>  <tags>  (88) 
{'openbind_d68ev3c_c1_fragmenstein', 'fragmenstein_placed'}

>  <fragmenstein_mode>  (88) 
expansion

>  <smiles>  (88) 
C3715-P128

>  <alias>  (88) 
CS(=O)(=O)Nc1cccc(-c2cn3c(N)nnc3cc2NCc2n[nH]c(-c3ccccc3)n2)c1

>  <fragmenstein_runtime>  (88) 
3.652698

>  <inchikey>  (88) 
RFUDZDZLGWTUJE-UHFFFAOYSA-N

>  <HIPPO Compound ID>  (88) 
3715

>  <scratch_subdir>  (88) 
/opt/xchem-fragalysis-2/maxwin/BulkDock/SCRATCH/505734/C3715-P128

>  <fragmenstein_outcome>  (88) 
acceptable

>  <fragmenstein_error>  (88) 


>  <ref_pdb>  (88) 
97

>  <HIPPO Pose ID>  (88) 
1436

>  <Energy>  (88) 
71.081524

$$$$
CS(=O)(=O)Nc1cccc(-c2ccc3nnc(N)n3c2Sc2nc(=O)c3sccc3[nH]2)c1
     RDKit          3D

 32 36  0  0  0  0  0  0  0  0999 V2000
    2.8797   -3.4626   37.4305 C   0  0  0  0  0  0  0  0  0  0  0  0
    4.3444   -3.4398   36.4284 S   0  0  0  0  0  0  0  0  0  0  0  0
    5.4232   -2.9658   37.2680 O   0  0  0  0  0  0  0  0  0  0  0  0
    4.4468   -4.6939   35.7151 O   0  0  0  0  0  0  0  0  0  0  0  0
    3.9830   -2.1625   35.3747 N   0  0  0  0  0  0  0  0  0  0  0  0
    3.6400   -2.4824   34.0291 C   0  0  0  0  0  0  0  0  0  0  0  0
    4.4196   -1.9817   32.9948 C   0  0  0  0  0  0  0  0  0  0  0  0
    4.1648   -2.3909   31.6925 C   0  0  0  0  0  0  0  0  0  0  0  0
    3.1647   -3.3336   31.4426 C   0  0  0  0  0  0  0  0  0  0  0  0
    2.3353   -3.8216   32.4704 C   0  0  0  0  0  0  0  0  0  0  0  0
    1.2496   -4.8096   32.1580 C   0  0  0  0  0  0  0  0  0  0  0  0
    0.6426   -4.7225   30.8179 C   0  0  0  0  0  0  0  0  0  0  0  0
   -0.1290   -5.6832   30.3033 C   0  0  0  0  0  0  0  0  0  0  0  0
   -0.5635   -6.7394   31.1229 C   0  0  0  0  0  0  0  0  0  0  0  0
   -1.3289   -7.7775   30.8817 N   0  0  0  0  0  0  0  0  0  0  0  0
   -1.5794   -8.3839   32.0820 N   0  0  0  0  0  0  0  0  0  0  0  0
   -0.9802   -7.6961   33.0276 C   0  0  0  0  0  0  0  0  0  0  0  0
   -1.0949   -7.8835   34.3654 N   0  0  0  0  0  0  0  0  0  0  0  0
   -0.1965   -6.7006   32.4572 N   0  0  0  0  0  0  0  0  0  0  0  0
    0.7963   -5.8250   32.9628 C   0  0  0  0  0  0  0  0  0  0  0  0
    1.5719   -6.3189   34.4465 S   0  0  0  0  0  0  0  0  0  0  0  0
    0.4941   -5.7709   35.7214 C   0  0  0  0  0  0  0  0  0  0  0  0
   -0.1538   -4.6616   35.5597 N   0  0  0  0  0  0  0  0  0  0  0  0
   -0.8432   -4.1211   36.6360 C   0  0  0  0  0  0  0  0  0  0  0  0
   -1.5124   -3.1007   36.5371 O   0  0  0  0  0  0  0  0  0  0  0  0
   -0.6199   -4.8239   37.8819 C   0  0  0  0  0  0  0  0  0  0  0  0
   -1.0840   -4.2484   39.4086 S   0  0  0  0  0  0  0  0  0  0  0  0
   -0.4548   -5.6526   40.1792 C   0  0  0  0  0  0  0  0  0  0  0  0
    0.1318   -6.5233   39.2812 C   0  0  0  0  0  0  0  0  0  0  0  0
    0.0446   -6.0171   37.9653 C   0  0  0  0  0  0  0  0  0  0  0  0
    0.5499   -6.5562   36.8461 N   0  0  0  0  0  0  0  0  0  0  0  0
    2.5534   -3.3122   33.7503 C   0  0  0  0  0  0  0  0  0  0  0  0
  1  2  1  0
  2  3  2  0
  2  4  2  0
  2  5  1  0
  5  6  1  0
  6  7  2  0
  7  8  1  0
  8  9  2  0
  9 10  1  0
 10 11  1  0
 11 12  1  0
 12 13  2  0
 13 14  1  0
 14 15  2  0
 15 16  1  0
 16 17  2  0
 17 18  1  0
 17 19  1  0
 19 20  1  0
 20 21  1  0
 21 22  1  0
 22 23  2  0
 23 24  1  0
 24 25  2  0
 24 26  1  0
 26 27  1  0
 27 28  1  0
 28 29  2  0
 29 30  1  0
 30 31  1  0
 10 32  2  0
 32  6  1  0
 20 11  2  0
 31 22  1  0
 19 14  1  0
 30 26  2  0
M  END
>  <tags>  (89) 
{'openbind_d68ev3c_c1_fragmenstein', 'fragmenstein_placed'}

>  <fragmenstein_mode>  (89) 
expansion

>  <smiles>  (89) 
C3726-P129

>  <alias>  (89) 
CS(=O)(=O)Nc1cccc(-c2ccc3nnc(N)n3c2Sc2nc(=O)c3sccc3[nH]2)c1

>  <fragmenstein_runtime>  (89) 
2.232327

>  <inchikey>  (89) 
WEHWLKAJVTZUFD-UHFFFAOYSA-N

>  <HIPPO Compound ID>  (89) 
3726

>  <scratch_subdir>  (89) 
/opt/xchem-fragalysis-2/maxwin/BulkDock/SCRATCH/505734/C3726-P129

>  <fragmenstein_outcome>  (89) 
acceptable

>  <fragmenstein_error>  (89) 


>  <ref_pdb>  (89) 
97

>  <HIPPO Pose ID>  (89) 
1448

>  <Energy>  (89) 
-29.251206

$$$$
CS(=O)(=O)Nc1cccc(-c2cn3c(N)nnc3cc2CNS(=O)(=O)c2ccns2)c1
     RDKit          3D

 31 34  0  0  0  0  0  0  0  0999 V2000
    2.7612   -3.7293   37.4797 C   0  0  0  0  0  0  0  0  0  0  0  0
    4.2485   -3.7505   36.5012 S   0  0  0  0  0  0  0  0  0  0  0  0
    5.3401   -3.3855   37.3772 O   0  0  0  0  0  0  0  0  0  0  0  0
    4.2834   -4.9678   35.7198 O   0  0  0  0  0  0  0  0  0  0  0  0
    4.0114   -2.4160   35.5077 N   0  0  0  0  0  0  0  0  0  0  0  0
    3.4779   -2.5526   34.1944 C   0  0  0  0  0  0  0  0  0  0  0  0
    3.9266   -1.6695   33.2137 C   0  0  0  0  0  0  0  0  0  0  0  0
    3.4185   -1.7501   31.9235 C   0  0  0  0  0  0  0  0  0  0  0  0
    2.4489   -2.7052   31.6234 C   0  0  0  0  0  0  0  0  0  0  0  0
    1.9221   -3.5567   32.6142 C   0  0  0  0  0  0  0  0  0  0  0  0
    0.8818   -4.5623   32.2614 C   0  0  0  0  0  0  0  0  0  0  0  0
    0.5626   -5.6273   33.0338 C   0  0  0  0  0  0  0  0  0  0  0  0
   -0.2197   -6.6447   32.4841 N   0  0  0  0  0  0  0  0  0  0  0  0
   -0.9258   -7.6880   33.0472 C   0  0  0  0  0  0  0  0  0  0  0  0
   -1.1004   -7.8388   34.3808 N   0  0  0  0  0  0  0  0  0  0  0  0
   -1.4253   -8.4333   32.0825 N   0  0  0  0  0  0  0  0  0  0  0  0
   -1.1229   -7.8565   30.8703 N   0  0  0  0  0  0  0  0  0  0  0  0
   -0.4570   -6.7528   31.1221 C   0  0  0  0  0  0  0  0  0  0  0  0
   -0.1691   -5.6101   30.3202 C   0  0  0  0  0  0  0  0  0  0  0  0
    0.1534   -4.4783   30.9806 C   0  0  0  0  0  0  0  0  0  0  0  0
   -0.6546   -3.2143   30.7783 C   0  0  0  0  0  0  0  0  0  0  0  0
   -0.4242   -2.5755   29.4802 N   0  0  0  0  0  0  0  0  0  0  0  0
   -1.5247   -1.3015   29.2393 S   0  0  0  0  0  0  0  0  0  0  0  0
   -2.2597   -1.6466   28.0537 O   0  0  0  0  0  0  0  0  0  0  0  0
   -2.1681   -1.0044   30.5039 O   0  0  0  0  0  0  0  0  0  0  0  0
   -0.7513    0.1814   28.8082 C   0  0  0  0  0  0  0  0  0  0  0  0
   -1.0076    1.1402   27.8516 C   0  0  0  0  0  0  0  0  0  0  0  0
   -0.1510    2.2521   28.0533 C   0  0  0  0  0  0  0  0  0  0  0  0
    0.7294    2.1602   29.0510 N   0  0  0  0  0  0  0  0  0  0  0  0
    0.5105    0.7002   29.8081 S   0  0  0  0  0  0  0  0  0  0  0  0
    2.4433   -3.4459   33.9035 C   0  0  0  0  0  0  0  0  0  0  0  0
  1  2  1  0
  2  3  2  0
  2  4  2  0
  2  5  1  0
  5  6  1  0
  6  7  2  0
  7  8  1  0
  8  9  2  0
  9 10  1  0
 10 11  1  0
 11 12  2  0
 12 13  1  0
 13 14  1  0
 14 15  1  0
 14 16  2  0
 16 17  1  0
 17 18  2  0
 18 19  1  0
 19 20  2  0
 20 21  1  0
 21 22  1  0
 22 23  1  0
 23 24  2  0
 23 25  2  0
 23 26  1  0
 26 27  2  0
 27 28  1  0
 28 29  2  0
 29 30  1  0
 10 31  2  0
 31  6  1  0
 20 11  1  0
 30 26  1  0
 18 13  1  0
M  END
>  <tags>  (90) 
{'openbind_d68ev3c_c1_fragmenstein', 'fragmenstein_placed'}

>  <fragmenstein_mode>  (90) 
expansion

>  <smiles>  (90) 
C3730-P129

>  <alias>  (90) 
CS(=O)(=O)Nc1cccc(-c2cn3c(N)nnc3cc2CNS(=O)(=O)c2ccns2)c1

>  <fragmenstein_runtime>  (90) 
2.291507

>  <inchikey>  (90) 
NGFNKELXAMTNHT-UHFFFAOYSA-N

>  <HIPPO Compound ID>  (90) 
3730

>  <scratch_subdir>  (90) 
/opt/xchem-fragalysis-2/maxwin/BulkDock/SCRATCH/505734/C3730-P129

>  <fragmenstein_outcome>  (90) 
acceptable

>  <fragmenstein_error>  (90) 


>  <ref_pdb>  (90) 
97

>  <HIPPO Pose ID>  (90) 
1450

>  <Energy>  (90) 
-62.026322

$$$$
CS(=O)(=O)Nc1cccc(-c2cn3c(N)nnc3cc2CNS(=O)(=O)c2ccc(O)cc2)c1
     RDKit          3D

 33 36  0  0  0  0  0  0  0  0999 V2000
    2.7611   -3.6402   37.3573 C   0  0  0  0  0  0  0  0  0  0  0  0
    4.3528   -3.7411   36.5617 S   0  0  0  0  0  0  0  0  0  0  0  0
    5.3347   -3.2534   37.5051 O   0  0  0  0  0  0  0  0  0  0  0  0
    4.4922   -5.0400   35.9391 O   0  0  0  0  0  0  0  0  0  0  0  0
    4.2200   -2.5441   35.3971 N   0  0  0  0  0  0  0  0  0  0  0  0
    3.7426   -2.7962   34.0798 C   0  0  0  0  0  0  0  0  0  0  0  0
    4.0689   -1.8718   33.0870 C   0  0  0  0  0  0  0  0  0  0  0  0
    3.5661   -2.0236   31.7994 C   0  0  0  0  0  0  0  0  0  0  0  0
    2.7123   -3.0875   31.5133 C   0  0  0  0  0  0  0  0  0  0  0  0
    2.3140   -3.9936   32.5147 C   0  0  0  0  0  0  0  0  0  0  0  0
    1.2806   -5.0230   32.2254 C   0  0  0  0  0  0  0  0  0  0  0  0
    0.8138   -5.9637   33.0913 C   0  0  0  0  0  0  0  0  0  0  0  0
   -0.1785   -6.8568   32.6440 N   0  0  0  0  0  0  0  0  0  0  0  0
   -1.0287   -7.7289   33.2891 C   0  0  0  0  0  0  0  0  0  0  0  0
   -1.1263   -7.8385   34.6338 N   0  0  0  0  0  0  0  0  0  0  0  0
   -1.7095   -8.4060   32.3872 N   0  0  0  0  0  0  0  0  0  0  0  0
   -1.3656   -7.9677   31.1320 N   0  0  0  0  0  0  0  0  0  0  0  0
   -0.4968   -7.0036   31.2960 C   0  0  0  0  0  0  0  0  0  0  0  0
    0.1761   -6.1138   30.3981 C   0  0  0  0  0  0  0  0  0  0  0  0
    0.4622   -4.9240   30.9867 C   0  0  0  0  0  0  0  0  0  0  0  0
   -0.7066   -3.9533   31.1670 C   0  0  0  0  0  0  0  0  0  0  0  0
   -0.4209   -2.8421   32.0716 N   0  0  0  0  0  0  0  0  0  0  0  0
   -1.4877   -1.5579   32.0321 S   0  0  0  0  0  0  0  0  0  0  0  0
   -2.8092   -2.0885   31.7830 O   0  0  0  0  0  0  0  0  0  0  0  0
   -1.2050   -0.7483   33.1972 O   0  0  0  0  0  0  0  0  0  0  0  0
   -0.9288   -0.6844   30.6012 C   0  0  0  0  0  0  0  0  0  0  0  0
   -0.0850    0.4176   30.7460 C   0  0  0  0  0  0  0  0  0  0  0  0
    0.2885    1.1449   29.6157 C   0  0  0  0  0  0  0  0  0  0  0  0
   -0.1816    0.7622   28.3617 C   0  0  0  0  0  0  0  0  0  0  0  0
    0.1365    1.4840   27.2493 O   0  0  0  0  0  0  0  0  0  0  0  0
   -0.9973   -0.3501   28.2133 C   0  0  0  0  0  0  0  0  0  0  0  0
   -1.3766   -1.0762   29.3368 C   0  0  0  0  0  0  0  0  0  0  0  0
    2.8422   -3.8248   33.7935 C   0  0  0  0  0  0  0  0  0  0  0  0
  1  2  1  0
  2  3  2  0
  2  4  2  0
  2  5  1  0
  5  6  1  0
  6  7  2  0
  7  8  1  0
  8  9  2  0
  9 10  1  0
 10 11  1  0
 11 12  2  0
 12 13  1  0
 13 14  1  0
 14 15  1  0
 14 16  2  0
 16 17  1  0
 17 18  2  0
 18 19  1  0
 19 20  2  0
 20 21  1  0
 21 22  1  0
 22 23  1  0
 23 24  2  0
 23 25  2  0
 23 26  1  0
 26 27  2  0
 27 28  1  0
 28 29  2  0
 29 30  1  0
 29 31  1  0
 31 32  2  0
 10 33  2  0
 33  6  1  0
 20 11  1  0
 32 26  1  0
 18 13  1  0
M  END
>  <tags>  (91) 
{'openbind_d68ev3c_c1_fragmenstein', 'fragmenstein_placed'}

>  <fragmenstein_mode>  (91) 
expansion

>  <smiles>  (91) 
C3731-P129

>  <alias>  (91) 
CS(=O)(=O)Nc1cccc(-c2cn3c(N)nnc3cc2CNS(=O)(=O)c2ccc(O)cc2)c1

>  <fragmenstein_runtime>  (91) 
3.441317

>  <inchikey>  (91) 
UCTZVMKIVANZFW-UHFFFAOYSA-N

>  <HIPPO Compound ID>  (91) 
3731

>  <scratch_subdir>  (91) 
/opt/xchem-fragalysis-2/maxwin/BulkDock/SCRATCH/505734/C3731-P129

>  <fragmenstein_outcome>  (91) 
acceptable

>  <fragmenstein_error>  (91) 


>  <ref_pdb>  (91) 
97

>  <HIPPO Pose ID>  (91) 
1451

>  <Energy>  (91) 
-5.688292

$$$$
CN(Cc1ccccc1)C(O)(O)N1CCc2nncn2CC1
     RDKit          3D

 22 24  0  0  0  0  0  0  0  0999 V2000
    0.9300   -2.2603   29.1871 C   0  0  0  0  0  0  0  0  0  0  0  0
   -0.3202   -2.7786   29.7314 N   0  0  0  0  0  0  0  0  0  0  0  0
   -1.4769   -1.9005   29.4314 C   0  0  0  0  0  0  0  0  0  0  0  0
   -1.1983   -0.4508   29.0549 C   0  0  0  0  0  0  0  0  0  0  0  0
   -0.5775    0.4418   29.9395 C   0  0  0  0  0  0  0  0  0  0  0  0
   -0.2647    1.7419   29.5391 C   0  0  0  0  0  0  0  0  0  0  0  0
   -0.6607    2.2028   28.2873 C   0  0  0  0  0  0  0  0  0  0  0  0
   -1.3288    1.3476   27.4187 C   0  0  0  0  0  0  0  0  0  0  0  0
   -1.5670    0.0226   27.7872 C   0  0  0  0  0  0  0  0  0  0  0  0
   -0.2984   -3.2084   31.1079 C   0  0  0  0  0  0  0  0  0  0  0  0
   -1.4873   -3.8791   31.4404 O   0  0  0  0  0  0  0  0  0  0  0  0
   -0.2328   -2.0876   31.9451 O   0  0  0  0  0  0  0  0  0  0  0  0
    0.8423   -4.0575   31.4134 N   0  0  0  0  0  0  0  0  0  0  0  0
    1.0149   -4.3165   32.8609 C   0  0  0  0  0  0  0  0  0  0  0  0
    1.3765   -5.7340   33.3109 C   0  0  0  0  0  0  0  0  0  0  0  0
    0.2556   -6.6618   33.0651 C   0  0  0  0  0  0  0  0  0  0  0  0
   -0.4053   -7.3351   33.9768 N   0  0  0  0  0  0  0  0  0  0  0  0
   -1.4348   -7.9830   33.3523 N   0  0  0  0  0  0  0  0  0  0  0  0
   -1.3556   -7.7267   32.0741 C   0  0  0  0  0  0  0  0  0  0  0  0
   -0.3018   -6.9070   31.8454 N   0  0  0  0  0  0  0  0  0  0  0  0
    0.0789   -6.3916   30.5647 C   0  0  0  0  0  0  0  0  0  0  0  0
    1.0574   -5.2197   30.5428 C   0  0  0  0  0  0  0  0  0  0  0  0
  1  2  1  0
  2  3  1  0
  3  4  1  0
  4  5  2  0
  5  6  1  0
  6  7  2  0
  7  8  1  0
  8  9  2  0
  2 10  1  0
 10 11  1  0
 10 12  1  0
 10 13  1  0
 13 14  1  0
 14 15  1  0
 15 16  1  0
 16 17  2  0
 17 18  1  0
 18 19  2  0
 19 20  1  0
 20 21  1  0
 21 22  1  0
  9  4  1  0
 22 13  1  0
 20 16  1  0
M  END
>  <tags>  (92) 
{'openbind_d68ev3c_c1_fragmenstein', 'fragmenstein_placed'}

>  <fragmenstein_mode>  (92) 
expansion

>  <smiles>  (92) 
C3771-P130

>  <alias>  (92) 
CN(Cc1ccccc1)C(O)(O)N1CCc2nncn2CC1

>  <fragmenstein_runtime>  (92) 
5.995835

>  <inchikey>  (92) 
FPPIZHXQRJINDQ-UHFFFAOYSA-N

>  <HIPPO Compound ID>  (92) 
3771

>  <scratch_subdir>  (92) 
/opt/xchem-fragalysis-2/maxwin/BulkDock/SCRATCH/505734/C3771-P130

>  <fragmenstein_outcome>  (92) 
acceptable

>  <fragmenstein_error>  (92) 


>  <ref_pdb>  (92) 
97

>  <HIPPO Pose ID>  (92) 
1480

>  <Energy>  (92) 
-165.686371

$$$$
Cc1nncn1CCNC(O)(O)N(C)Cc1ccccc1
     RDKit          3D

 21 22  0  0  0  0  0  0  0  0999 V2000
    0.8708   -6.4002   30.0885 C   0  0  0  0  0  0  0  0  0  0  0  0
   -0.0956   -7.0925   30.9621 C   0  0  0  0  0  0  0  0  0  0  0  0
   -0.9707   -7.9987   30.5813 N   0  0  0  0  0  0  0  0  0  0  0  0
   -1.6724   -8.3947   31.6873 N   0  0  0  0  0  0  0  0  0  0  0  0
   -1.2208   -7.7188   32.7181 C   0  0  0  0  0  0  0  0  0  0  0  0
   -0.2555   -6.8571   32.3034 N   0  0  0  0  0  0  0  0  0  0  0  0
    0.4260   -5.8770   33.1222 C   0  0  0  0  0  0  0  0  0  0  0  0
   -0.1772   -4.4651   33.0029 C   0  0  0  0  0  0  0  0  0  0  0  0
   -0.0434   -3.9152   31.6446 N   0  0  0  0  0  0  0  0  0  0  0  0
   -0.9081   -2.8183   31.3307 C   0  0  0  0  0  0  0  0  0  0  0  0
   -2.2061   -3.2693   31.5962 O   0  0  0  0  0  0  0  0  0  0  0  0
   -0.5888   -1.7241   32.1196 O   0  0  0  0  0  0  0  0  0  0  0  0
   -0.7853   -2.5369   29.9278 N   0  0  0  0  0  0  0  0  0  0  0  0
    0.5609   -2.4623   29.3731 C   0  0  0  0  0  0  0  0  0  0  0  0
   -1.6526   -1.4494   29.4404 C   0  0  0  0  0  0  0  0  0  0  0  0
   -1.0725   -0.1167   29.0252 C   0  0  0  0  0  0  0  0  0  0  0  0
   -0.3210    0.6720   29.9041 C   0  0  0  0  0  0  0  0  0  0  0  0
    0.0959    1.9496   29.5305 C   0  0  0  0  0  0  0  0  0  0  0  0
   -0.2756    2.4724   28.2946 C   0  0  0  0  0  0  0  0  0  0  0  0
   -1.0341    1.7060   27.4162 C   0  0  0  0  0  0  0  0  0  0  0  0
   -1.4128    0.4124   27.7700 C   0  0  0  0  0  0  0  0  0  0  0  0
  1  2  1  0
  2  3  2  0
  3  4  1  0
  4  5  2  0
  5  6  1  0
  6  7  1  0
  7  8  1  0
  8  9  1  0
  9 10  1  0
 10 11  1  0
 10 12  1  0
 10 13  1  0
 13 14  1  0
 13 15  1  0
 15 16  1  0
 16 17  2  0
 17 18  1  0
 18 19  2  0
 19 20  1  0
 20 21  2  0
  6  2  1  0
 21 16  1  0
M  END
>  <tags>  (93) 
{'openbind_d68ev3c_c1_fragmenstein', 'fragmenstein_placed'}

>  <fragmenstein_mode>  (93) 
expansion

>  <smiles>  (93) 
C3774-P130

>  <alias>  (93) 
Cc1nncn1CCNC(O)(O)N(C)Cc1ccccc1

>  <fragmenstein_runtime>  (93) 
3.421426

>  <inchikey>  (93) 
MBOQPCNPJLMJSB-UHFFFAOYSA-N

>  <HIPPO Compound ID>  (93) 
3774

>  <scratch_subdir>  (93) 
/opt/xchem-fragalysis-2/maxwin/BulkDock/SCRATCH/505734/C3774-P130

>  <fragmenstein_outcome>  (93) 
acceptable

>  <fragmenstein_error>  (93) 


>  <ref_pdb>  (93) 
97

>  <HIPPO Pose ID>  (93) 
1483

>  <Energy>  (93) 
-205.049468

$$$$
COc1ccc(-c2cn3c(N)nnc3cc2CNS(=O)(=O)c2ccns2)cc1OC
     RDKit          3D

 30 33  0  0  0  0  0  0  0  0999 V2000
    6.1902   -0.7863   33.7203 C   0  0  0  0  0  0  0  0  0  0  0  0
    5.4947   -1.7282   34.5251 O   0  0  0  0  0  0  0  0  0  0  0  0
    4.4717   -2.4149   33.9357 C   0  0  0  0  0  0  0  0  0  0  0  0
    3.9353   -2.1403   32.6840 C   0  0  0  0  0  0  0  0  0  0  0  0
    2.8809   -2.9154   32.1752 C   0  0  0  0  0  0  0  0  0  0  0  0
    2.2795   -3.9480   32.9115 C   0  0  0  0  0  0  0  0  0  0  0  0
    1.1661   -4.7785   32.3398 C   0  0  0  0  0  0  0  0  0  0  0  0
    0.5897   -5.7498   33.0898 C   0  0  0  0  0  0  0  0  0  0  0  0
   -0.2515   -6.6868   32.4977 N   0  0  0  0  0  0  0  0  0  0  0  0
   -1.0436   -7.6828   33.0295 C   0  0  0  0  0  0  0  0  0  0  0  0
   -1.2412   -7.8511   34.3572 N   0  0  0  0  0  0  0  0  0  0  0  0
   -1.5581   -8.3911   32.0458 N   0  0  0  0  0  0  0  0  0  0  0  0
   -1.1769   -7.8284   30.8503 N   0  0  0  0  0  0  0  0  0  0  0  0
   -0.4286   -6.7862   31.1324 C   0  0  0  0  0  0  0  0  0  0  0  0
    0.0195   -5.6944   30.3485 C   0  0  0  0  0  0  0  0  0  0  0  0
    0.6095   -4.6412   30.9585 C   0  0  0  0  0  0  0  0  0  0  0  0
    0.1250   -3.2777   30.5026 C   0  0  0  0  0  0  0  0  0  0  0  0
    0.9036   -2.6815   29.4025 N   0  0  0  0  0  0  0  0  0  0  0  0
    0.1525   -1.2554   28.7706 S   0  0  0  0  0  0  0  0  0  0  0  0
    1.1666   -0.4603   28.1246 O   0  0  0  0  0  0  0  0  0  0  0  0
   -1.0625   -1.6976   28.1362 O   0  0  0  0  0  0  0  0  0  0  0  0
   -0.4441   -0.3749   30.1598 C   0  0  0  0  0  0  0  0  0  0  0  0
   -1.5918   -0.5227   30.9122 C   0  0  0  0  0  0  0  0  0  0  0  0
   -1.4811    0.2080   32.1145 C   0  0  0  0  0  0  0  0  0  0  0  0
   -0.3881    0.9508   32.2623 N   0  0  0  0  0  0  0  0  0  0  0  0
    0.5755    0.7404   30.9183 S   0  0  0  0  0  0  0  0  0  0  0  0
    2.8401   -4.2109   34.1725 C   0  0  0  0  0  0  0  0  0  0  0  0
    3.9322   -3.4803   34.6572 C   0  0  0  0  0  0  0  0  0  0  0  0
    4.4245   -3.8378   35.8885 O   0  0  0  0  0  0  0  0  0  0  0  0
    5.5609   -4.6894   35.7331 C   0  0  0  0  0  0  0  0  0  0  0  0
  1  2  1  0
  2  3  1  0
  3  4  2  0
  4  5  1  0
  5  6  2  0
  6  7  1  0
  7  8  2  0
  8  9  1  0
  9 10  1  0
 10 11  1  0
 10 12  2  0
 12 13  1  0
 13 14  2  0
 14 15  1  0
 15 16  2  0
 16 17  1  0
 17 18  1  0
 18 19  1  0
 19 20  2  0
 19 21  2  0
 19 22  1  0
 22 23  2  0
 23 24  1  0
 24 25  2  0
 25 26  1  0
  6 27  1  0
 27 28  2  0
 28 29  1  0
 29 30  1  0
 28  3  1  0
 16  7  1  0
 26 22  1  0
 14  9  1  0
M  END
>  <tags>  (94) 
{'openbind_d68ev3c_c1_fragmenstein', 'fragmenstein_placed'}

>  <fragmenstein_mode>  (94) 
expansion

>  <smiles>  (94) 
C3833-P132

>  <alias>  (94) 
COc1ccc(-c2cn3c(N)nnc3cc2CNS(=O)(=O)c2ccns2)cc1OC

>  <fragmenstein_runtime>  (94) 
1.621452

>  <inchikey>  (94) 
XRJKXMOAKHZIHH-UHFFFAOYSA-N

>  <HIPPO Compound ID>  (94) 
3833

>  <scratch_subdir>  (94) 
/opt/xchem-fragalysis-2/maxwin/BulkDock/SCRATCH/505734/C3833-P132

>  <fragmenstein_outcome>  (94) 
acceptable

>  <fragmenstein_error>  (94) 


>  <ref_pdb>  (94) 
97

>  <HIPPO Pose ID>  (94) 
1525

>  <Energy>  (94) 
11.934521

$$$$
COc1ccc(-c2cn3c(N)nnc3cc2CNS(=O)(=O)c2cscn2)cc1OC
     RDKit          3D

 30 33  0  0  0  0  0  0  0  0999 V2000
    6.2347   -0.8290   33.6616 C   0  0  0  0  0  0  0  0  0  0  0  0
    5.5604   -1.7487   34.5078 O   0  0  0  0  0  0  0  0  0  0  0  0
    4.5002   -2.4289   33.9794 C   0  0  0  0  0  0  0  0  0  0  0  0
    3.9547   -2.2142   32.7184 C   0  0  0  0  0  0  0  0  0  0  0  0
    2.8639   -2.9785   32.2839 C   0  0  0  0  0  0  0  0  0  0  0  0
    2.2428   -3.9295   33.1134 C   0  0  0  0  0  0  0  0  0  0  0  0
    1.1043   -4.7346   32.5925 C   0  0  0  0  0  0  0  0  0  0  0  0
    0.6574   -5.8416   33.2212 C   0  0  0  0  0  0  0  0  0  0  0  0
   -0.2056   -6.6957   32.5428 N   0  0  0  0  0  0  0  0  0  0  0  0
   -1.0097   -7.7167   32.9870 C   0  0  0  0  0  0  0  0  0  0  0  0
   -1.2639   -7.9188   34.2984 N   0  0  0  0  0  0  0  0  0  0  0  0
   -1.4907   -8.3635   31.9461 N   0  0  0  0  0  0  0  0  0  0  0  0
   -1.1276   -7.6801   30.8015 N   0  0  0  0  0  0  0  0  0  0  0  0
   -0.4275   -6.6308   31.1780 C   0  0  0  0  0  0  0  0  0  0  0  0
   -0.0662   -5.4091   30.5335 C   0  0  0  0  0  0  0  0  0  0  0  0
    0.3946   -4.4155   31.3320 C   0  0  0  0  0  0  0  0  0  0  0  0
   -0.3580   -3.1028   31.3318 C   0  0  0  0  0  0  0  0  0  0  0  0
    0.0554   -2.2137   30.2460 N   0  0  0  0  0  0  0  0  0  0  0  0
   -1.2832   -1.3544   29.6556 S   0  0  0  0  0  0  0  0  0  0  0  0
   -1.8551   -2.1395   28.5989 O   0  0  0  0  0  0  0  0  0  0  0  0
   -2.0412   -0.9119   30.8098 O   0  0  0  0  0  0  0  0  0  0  0  0
   -0.7704    0.1242   28.9260 C   0  0  0  0  0  0  0  0  0  0  0  0
   -1.2200    0.5632   27.6985 C   0  0  0  0  0  0  0  0  0  0  0  0
   -0.6765    2.1616   27.4316 S   0  0  0  0  0  0  0  0  0  0  0  0
    0.1668    2.1106   28.9264 C   0  0  0  0  0  0  0  0  0  0  0  0
    0.0728    0.9949   29.6172 N   0  0  0  0  0  0  0  0  0  0  0  0
    2.7966   -4.1297   34.3816 C   0  0  0  0  0  0  0  0  0  0  0  0
    3.9341   -3.4230   34.7835 C   0  0  0  0  0  0  0  0  0  0  0  0
    4.4555   -3.7279   36.0162 O   0  0  0  0  0  0  0  0  0  0  0  0
    5.5297   -4.6599   35.8727 C   0  0  0  0  0  0  0  0  0  0  0  0
  1  2  1  0
  2  3  1  0
  3  4  2  0
  4  5  1  0
  5  6  2  0
  6  7  1  0
  7  8  2  0
  8  9  1  0
  9 10  1  0
 10 11  1  0
 10 12  2  0
 12 13  1  0
 13 14  2  0
 14 15  1  0
 15 16  2  0
 16 17  1  0
 17 18  1  0
 18 19  1  0
 19 20  2  0
 19 21  2  0
 19 22  1  0
 22 23  2  0
 23 24  1  0
 24 25  1  0
 25 26  2  0
  6 27  1  0
 27 28  2  0
 28 29  1  0
 29 30  1  0
 28  3  1  0
 16  7  1  0
 26 22  1  0
 14  9  1  0
M  END
>  <tags>  (95) 
{'openbind_d68ev3c_c1_fragmenstein', 'fragmenstein_placed'}

>  <fragmenstein_mode>  (95) 
expansion

>  <smiles>  (95) 
C3838-P132

>  <alias>  (95) 
COc1ccc(-c2cn3c(N)nnc3cc2CNS(=O)(=O)c2cscn2)cc1OC

>  <fragmenstein_runtime>  (95) 
3.117901

>  <inchikey>  (95) 
ZQRKEFALIPPHPN-UHFFFAOYSA-N

>  <HIPPO Compound ID>  (95) 
3838

>  <scratch_subdir>  (95) 
/opt/xchem-fragalysis-2/maxwin/BulkDock/SCRATCH/505734/C3838-P132

>  <fragmenstein_outcome>  (95) 
acceptable

>  <fragmenstein_error>  (95) 


>  <ref_pdb>  (95) 
97

>  <HIPPO Pose ID>  (95) 
1527

>  <Energy>  (95) 
83.934107

$$$$
COc1ccc(-c2cn3c(N)nnc3cc2CNS(=O)(=O)c2ccc(N)nc2)cc1OC
     RDKit          3D

 32 35  0  0  0  0  0  0  0  0999 V2000
    6.1386   -0.7865   33.6262 C   0  0  0  0  0  0  0  0  0  0  0  0
    5.4739   -1.7117   34.4744 O   0  0  0  0  0  0  0  0  0  0  0  0
    4.3957   -2.3719   33.9562 C   0  0  0  0  0  0  0  0  0  0  0  0
    3.7669   -2.0665   32.7529 C   0  0  0  0  0  0  0  0  0  0  0  0
    2.6617   -2.8150   32.3189 C   0  0  0  0  0  0  0  0  0  0  0  0
    2.1199   -3.8593   33.0895 C   0  0  0  0  0  0  0  0  0  0  0  0
    0.9871   -4.6832   32.5673 C   0  0  0  0  0  0  0  0  0  0  0  0
    0.5143   -5.7499   33.2474 C   0  0  0  0  0  0  0  0  0  0  0  0
   -0.2964   -6.6679   32.5896 N   0  0  0  0  0  0  0  0  0  0  0  0
   -1.0721   -7.7001   33.0607 C   0  0  0  0  0  0  0  0  0  0  0  0
   -1.3164   -7.8927   34.3779 N   0  0  0  0  0  0  0  0  0  0  0  0
   -1.5390   -8.3848   32.0385 N   0  0  0  0  0  0  0  0  0  0  0  0
   -1.1643   -7.7475   30.8745 N   0  0  0  0  0  0  0  0  0  0  0  0
   -0.4689   -6.6850   31.2170 C   0  0  0  0  0  0  0  0  0  0  0  0
   -0.0849   -5.5084   30.5086 C   0  0  0  0  0  0  0  0  0  0  0  0
    0.3381   -4.4561   31.2506 C   0  0  0  0  0  0  0  0  0  0  0  0
   -0.4147   -3.1487   31.1145 C   0  0  0  0  0  0  0  0  0  0  0  0
   -0.1335   -2.4325   29.8593 N   0  0  0  0  0  0  0  0  0  0  0  0
   -1.3985   -1.3476   29.5183 S   0  0  0  0  0  0  0  0  0  0  0  0
   -2.0533   -1.9184   28.3746 O   0  0  0  0  0  0  0  0  0  0  0  0
   -2.0880   -1.0613   30.7604 O   0  0  0  0  0  0  0  0  0  0  0  0
   -0.6761    0.1442   29.0188 C   0  0  0  0  0  0  0  0  0  0  0  0
   -1.0626    0.7614   27.8345 C   0  0  0  0  0  0  0  0  0  0  0  0
   -0.6608    2.0723   27.6158 C   0  0  0  0  0  0  0  0  0  0  0  0
    0.1171    2.7024   28.5795 C   0  0  0  0  0  0  0  0  0  0  0  0
    0.5064    4.0287   28.4130 N   0  0  0  0  0  0  0  0  0  0  0  0
    0.5345    2.0916   29.7066 N   0  0  0  0  0  0  0  0  0  0  0  0
    0.1141    0.8253   29.9164 C   0  0  0  0  0  0  0  0  0  0  0  0
    2.7582   -4.1442   34.3049 C   0  0  0  0  0  0  0  0  0  0  0  0
    3.8930   -3.4343   34.7112 C   0  0  0  0  0  0  0  0  0  0  0  0
    4.4643   -3.8031   35.9043 O   0  0  0  0  0  0  0  0  0  0  0  0
    5.5711   -4.6755   35.6728 C   0  0  0  0  0  0  0  0  0  0  0  0
  1  2  1  0
  2  3  1  0
  3  4  2  0
  4  5  1  0
  5  6  2  0
  6  7  1  0
  7  8  2  0
  8  9  1  0
  9 10  1  0
 10 11  1  0
 10 12  2  0
 12 13  1  0
 13 14  2  0
 14 15  1  0
 15 16  2  0
 16 17  1  0
 17 18  1  0
 18 19  1  0
 19 20  2  0
 19 21  2  0
 19 22  1  0
 22 23  2  0
 23 24  1  0
 24 25  2  0
 25 26  1  0
 25 27  1  0
 27 28  2  0
  6 29  1  0
 29 30  2  0
 30 31  1  0
 31 32  1  0
 30  3  1  0
 16  7  1  0
 28 22  1  0
 14  9  1  0
M  END
>  <tags>  (96) 
{'openbind_d68ev3c_c1_fragmenstein', 'fragmenstein_placed'}

>  <fragmenstein_mode>  (96) 
expansion

>  <smiles>  (96) 
C3839-P132

>  <alias>  (96) 
COc1ccc(-c2cn3c(N)nnc3cc2CNS(=O)(=O)c2ccc(N)nc2)cc1OC

>  <fragmenstein_runtime>  (96) 
3.837538

>  <inchikey>  (96) 
PCRFJDYQFBPTTF-UHFFFAOYSA-N

>  <HIPPO Compound ID>  (96) 
3839

>  <scratch_subdir>  (96) 
/opt/xchem-fragalysis-2/maxwin/BulkDock/SCRATCH/505734/C3839-P132

>  <fragmenstein_outcome>  (96) 
acceptable

>  <fragmenstein_error>  (96) 


>  <ref_pdb>  (96) 
97

>  <HIPPO Pose ID>  (96) 
1528

>  <Energy>  (96) 
-12.86816

$$$$
CN[C@@]1(O)c2c(ccc(OC)c2OC)-c2ccc3nnc(N)n3c21
     RDKit          3D

 24 27  0  0  0  0  0  0  0  0999 V2000
    1.2659   -7.4507   36.0031 C   0  0  0  0  0  0  0  0  0  0  0  0
    2.0042   -6.5709   35.1076 N   0  0  0  0  0  0  0  0  0  0  0  0
    1.2686   -5.4384   34.5457 C   0  0  1  0  0  0  0  0  0  0  0  0
    0.3280   -4.9241   35.4659 O   0  0  0  0  0  0  0  0  0  0  0  0
    2.2762   -4.3396   34.1167 C   0  0  0  0  0  0  0  0  0  0  0  0
    2.0321   -3.9775   32.7895 C   0  0  0  0  0  0  0  0  0  0  0  0
    2.7098   -2.9502   32.1497 C   0  0  0  0  0  0  0  0  0  0  0  0
    3.7076   -2.2765   32.8444 C   0  0  0  0  0  0  0  0  0  0  0  0
    4.0610   -2.6757   34.1410 C   0  0  0  0  0  0  0  0  0  0  0  0
    5.0553   -2.0626   34.8622 O   0  0  0  0  0  0  0  0  0  0  0  0
    5.9608   -1.2218   34.1516 C   0  0  0  0  0  0  0  0  0  0  0  0
    3.3569   -3.7387   34.7684 C   0  0  0  0  0  0  0  0  0  0  0  0
    3.7068   -4.2275   36.0006 O   0  0  0  0  0  0  0  0  0  0  0  0
    5.0607   -4.6969   36.0380 C   0  0  0  0  0  0  0  0  0  0  0  0
    1.0440   -4.8672   32.2326 C   0  0  0  0  0  0  0  0  0  0  0  0
    0.6322   -5.0209   30.8631 C   0  0  0  0  0  0  0  0  0  0  0  0
   -0.1674   -6.0402   30.5265 C   0  0  0  0  0  0  0  0  0  0  0  0
   -0.6773   -6.9055   31.5211 C   0  0  0  0  0  0  0  0  0  0  0  0
   -1.4367   -7.9692   31.4230 N   0  0  0  0  0  0  0  0  0  0  0  0
   -1.7642   -8.3355   32.6969 N   0  0  0  0  0  0  0  0  0  0  0  0
   -1.2423   -7.4683   33.5385 C   0  0  0  0  0  0  0  0  0  0  0  0
   -1.5595   -7.3450   34.8411 N   0  0  0  0  0  0  0  0  0  0  0  0
   -0.3775   -6.6323   32.8590 N   0  0  0  0  0  0  0  0  0  0  0  0
    0.5800   -5.6773   33.2121 C   0  0  0  0  0  0  0  0  0  0  0  0
  1  2  1  0
  2  3  1  0
  3  4  1  1
  3  5  1  0
  5  6  2  0
  6  7  1  0
  7  8  2  0
  8  9  1  0
  9 10  1  0
 10 11  1  0
  9 12  2  0
 12 13  1  0
 13 14  1  0
  6 15  1  0
 15 16  1  0
 16 17  2  0
 17 18  1  0
 18 19  2  0
 19 20  1  0
 20 21  2  0
 21 22  1  0
 21 23  1  0
 23 24  1  0
 24  3  1  0
 12  5  1  0
 24 15  2  0
 23 18  1  0
M  END
>  <tags>  (97) 
{'openbind_d68ev3c_c1_fragmenstein', 'fragmenstein_placed'}

>  <fragmenstein_mode>  (97) 
expansion

>  <smiles>  (97) 
C3842-P132

>  <alias>  (97) 
CN[C@@]1(O)c2c(ccc(OC)c2OC)-c2ccc3nnc(N)n3c21

>  <fragmenstein_runtime>  (97) 
2.234387

>  <inchikey>  (97) 
HFIRPCZXCMKVSI-UHFFFAOYSA-N

>  <HIPPO Compound ID>  (97) 
3842

>  <scratch_subdir>  (97) 
/opt/xchem-fragalysis-2/maxwin/BulkDock/SCRATCH/505734/C3842-P132

>  <fragmenstein_outcome>  (97) 
acceptable

>  <fragmenstein_error>  (97) 


>  <ref_pdb>  (97) 
97

>  <HIPPO Pose ID>  (97) 
1531

>  <Energy>  (97) 
9.47605

$$$$
COc1ccc(-c2ccc3nnc4n3c2=CNC=4)cc1OC
     RDKit          3D

 22 25  0  0  0  0  0  0  0  0999 V2000
    6.3759   -1.2566   33.7897 C   0  0  0  0  0  0  0  0  0  0  0  0
    5.1411   -1.1606   34.4983 O   0  0  0  0  0  0  0  0  0  0  0  0
    4.2519   -2.0929   34.0275 C   0  0  0  0  0  0  0  0  0  0  0  0
    3.2797   -1.6513   33.1291 C   0  0  0  0  0  0  0  0  0  0  0  0
    2.3227   -2.5429   32.6532 C   0  0  0  0  0  0  0  0  0  0  0  0
    2.3366   -3.8760   33.0791 C   0  0  0  0  0  0  0  0  0  0  0  0
    1.3354   -4.8412   32.5925 C   0  0  0  0  0  0  0  0  0  0  0  0
    1.2338   -5.0363   31.2473 C   0  0  0  0  0  0  0  0  0  0  0  0
    0.3230   -6.0301   30.6626 C   0  0  0  0  0  0  0  0  0  0  0  0
   -0.3226   -6.8581   31.4954 C   0  0  0  0  0  0  0  0  0  0  0  0
   -1.2701   -7.8454   31.2335 N   0  0  0  0  0  0  0  0  0  0  0  0
   -1.7338   -8.2518   32.3807 N   0  0  0  0  0  0  0  0  0  0  0  0
   -1.0984   -7.5145   33.3775 C   0  0  0  0  0  0  0  0  0  0  0  0
   -0.1460   -6.7023   32.8333 N   0  0  0  0  0  0  0  0  0  0  0  0
    0.5078   -5.6766   33.4785 C   0  0  0  0  0  0  0  0  0  0  0  0
    0.2700   -5.5638   34.8082 C   0  0  0  0  0  0  0  0  0  0  0  0
   -0.5929   -6.4622   35.4552 N   0  0  0  0  0  0  0  0  0  0  0  0
   -1.3208   -7.4012   34.7023 C   0  0  0  0  0  0  0  0  0  0  0  0
    3.3169   -4.3062   33.9911 C   0  0  0  0  0  0  0  0  0  0  0  0
    4.2691   -3.4167   34.4882 C   0  0  0  0  0  0  0  0  0  0  0  0
    5.2285   -3.7319   35.4118 O   0  0  0  0  0  0  0  0  0  0  0  0
    5.2882   -5.0754   35.8692 C   0  0  0  0  0  0  0  0  0  0  0  0
  1  2  1  0
  2  3  1  0
  3  4  2  0
  4  5  1  0
  5  6  2  0
  6  7  1  0
  7  8  2  0
  8  9  1  0
  9 10  2  0
 10 11  1  0
 11 12  2  0
 12 13  1  0
 13 14  1  0
 14 15  1  0
 15 16  2  0
 16 17  1  0
 17 18  1  0
  6 19  1  0
 19 20  2  0
 20 21  1  0
 21 22  1  0
 20  3  1  0
 15  7  1  0
 14 10  1  0
 18 13  2  0
M  END
>  <tags>  (98) 
{'openbind_d68ev3c_c1_fragmenstein', 'fragmenstein_placed'}

>  <fragmenstein_mode>  (98) 
expansion

>  <smiles>  (98) 
C3809-P132

>  <alias>  (98) 
COc1ccc(-c2ccc3nnc4n3c2=CNC=4)cc1OC

>  <fragmenstein_runtime>  (98) 
1.289639

>  <inchikey>  (98) 
HRODOPFFJAXBLJ-UHFFFAOYSA-N

>  <HIPPO Compound ID>  (98) 
3809

>  <scratch_subdir>  (98) 
/opt/xchem-fragalysis-2/maxwin/BulkDock/SCRATCH/505734/C3809-P132

>  <fragmenstein_outcome>  (98) 
acceptable

>  <fragmenstein_error>  (98) 


>  <ref_pdb>  (98) 
97

>  <HIPPO Pose ID>  (98) 
1536

>  <Energy>  (98) 
142.179108

$$$$
COc1ccc(-c2ccc3nnc(N)n3c2C(=O)NCc2ccccc2)cc1OC
     RDKit          3D

 30 33  0  0  0  0  0  0  0  0999 V2000
    6.2436   -1.2364   33.8604 C   0  0  0  0  0  0  0  0  0  0  0  0
    5.0313   -1.1915   34.6118 O   0  0  0  0  0  0  0  0  0  0  0  0
    4.1466   -2.1250   34.1387 C   0  0  0  0  0  0  0  0  0  0  0  0
    3.1731   -1.7010   33.2337 C   0  0  0  0  0  0  0  0  0  0  0  0
    2.2375   -2.6115   32.7460 C   0  0  0  0  0  0  0  0  0  0  0  0
    2.2651   -3.9414   33.1801 C   0  0  0  0  0  0  0  0  0  0  0  0
    1.3385   -4.9341   32.6044 C   0  0  0  0  0  0  0  0  0  0  0  0
    1.4873   -5.2989   31.1938 C   0  0  0  0  0  0  0  0  0  0  0  0
    0.7191   -6.2291   30.6125 C   0  0  0  0  0  0  0  0  0  0  0  0
   -0.2400   -6.9250   31.3786 C   0  0  0  0  0  0  0  0  0  0  0  0
   -1.0582   -7.9016   31.0660 N   0  0  0  0  0  0  0  0  0  0  0  0
   -1.6927   -8.2795   32.2152 N   0  0  0  0  0  0  0  0  0  0  0  0
   -1.2818   -7.5145   33.2044 C   0  0  0  0  0  0  0  0  0  0  0  0
   -1.6142   -7.6765   34.5049 N   0  0  0  0  0  0  0  0  0  0  0  0
   -0.3736   -6.5835   32.7218 N   0  0  0  0  0  0  0  0  0  0  0  0
    0.3779   -5.5655   33.3312 C   0  0  0  0  0  0  0  0  0  0  0  0
    0.0735   -5.0615   34.7048 C   0  0  0  0  0  0  0  0  0  0  0  0
   -0.4748   -4.0466   34.8505 O   0  0  0  0  0  0  0  0  0  0  0  0
    0.5515   -6.0942   35.7400 N   0  0  0  0  0  0  0  0  0  0  0  0
    0.5394   -6.0500   37.1801 C   0  0  0  0  0  0  0  0  0  0  0  0
    1.8246   -6.5493   37.7682 C   0  0  0  0  0  0  0  0  0  0  0  0
    2.9507   -5.7172   37.8197 C   0  0  0  0  0  0  0  0  0  0  0  0
    4.1406   -6.1713   38.3911 C   0  0  0  0  0  0  0  0  0  0  0  0
    4.2213   -7.4642   38.9037 C   0  0  0  0  0  0  0  0  0  0  0  0
    3.1085   -8.3006   38.8544 C   0  0  0  0  0  0  0  0  0  0  0  0
    1.9156   -7.8455   38.2906 C   0  0  0  0  0  0  0  0  0  0  0  0
    3.2395   -4.3566   34.1009 C   0  0  0  0  0  0  0  0  0  0  0  0
    4.1821   -3.4502   34.5855 C   0  0  0  0  0  0  0  0  0  0  0  0
    5.1124   -3.7856   35.5330 O   0  0  0  0  0  0  0  0  0  0  0  0
    5.7491   -5.0399   35.3134 C   0  0  0  0  0  0  0  0  0  0  0  0
  1  2  1  0
  2  3  1  0
  3  4  2  0
  4  5  1  0
  5  6  2  0
  6  7  1  0
  7  8  1  0
  8  9  2  0
  9 10  1  0
 10 11  2  0
 11 12  1  0
 12 13  2  0
 13 14  1  0
 13 15  1  0
 15 16  1  0
 16 17  1  0
 17 18  2  0
 17 19  1  0
 19 20  1  0
 20 21  1  0
 21 22  2  0
 22 23  1  0
 23 24  2  0
 24 25  1  0
 25 26  2  0
  6 27  1  0
 27 28  2  0
 28 29  1  0
 29 30  1  0
 28  3  1  0
 16  7  2  0
 26 21  1  0
 15 10  1  0
M  END
>  <tags>  (99) 
{'openbind_d68ev3c_c1_fragmenstein', 'fragmenstein_placed'}

>  <fragmenstein_mode>  (99) 
expansion

>  <smiles>  (99) 
C3848-P132

>  <alias>  (99) 
COc1ccc(-c2ccc3nnc(N)n3c2C(=O)NCc2ccccc2)cc1OC

>  <fragmenstein_runtime>  (99) 
6.022132

>  <inchikey>  (99) 
XEZZCURYARAAPP-UHFFFAOYSA-N

>  <HIPPO Compound ID>  (99) 
3848

>  <scratch_subdir>  (99) 
/opt/xchem-fragalysis-2/maxwin/BulkDock/SCRATCH/505734/C3848-P132

>  <fragmenstein_outcome>  (99) 
acceptable

>  <fragmenstein_error>  (99) 


>  <ref_pdb>  (99) 
97

>  <HIPPO Pose ID>  (99) 
1537

>  <Energy>  (99) 
66.842984

$$$$
COc1ccc(-c2ccc3nnc(N)n3c2S(=O)(=O)N2CCNCC2)cc1OC
     RDKit          3D

 29 32  0  0  0  0  0  0  0  0999 V2000
    6.4317   -1.3152   33.8385 C   0  0  0  0  0  0  0  0  0  0  0  0
    5.1188   -1.1731   34.3767 O   0  0  0  0  0  0  0  0  0  0  0  0
    4.2506   -2.0151   33.7302 C   0  0  0  0  0  0  0  0  0  0  0  0
    3.6256   -1.5560   32.5690 C   0  0  0  0  0  0  0  0  0  0  0  0
    2.7176   -2.3720   31.8985 C   0  0  0  0  0  0  0  0  0  0  0  0
    2.3826   -3.6176   32.4259 C   0  0  0  0  0  0  0  0  0  0  0  0
    1.4468   -4.5239   31.7365 C   0  0  0  0  0  0  0  0  0  0  0  0
    1.8774   -5.3681   30.6256 C   0  0  0  0  0  0  0  0  0  0  0  0
    1.1227   -6.3877   30.1795 C   0  0  0  0  0  0  0  0  0  0  0  0
   -0.0228   -6.7852   30.9069 C   0  0  0  0  0  0  0  0  0  0  0  0
   -0.8135   -7.8325   30.8452 N   0  0  0  0  0  0  0  0  0  0  0  0
   -1.5204   -7.8677   32.0243 N   0  0  0  0  0  0  0  0  0  0  0  0
   -1.1883   -6.8092   32.7338 C   0  0  0  0  0  0  0  0  0  0  0  0
   -1.3932   -6.6110   34.0559 N   0  0  0  0  0  0  0  0  0  0  0  0
   -0.4055   -5.9710   31.9564 N   0  0  0  0  0  0  0  0  0  0  0  0
    0.2086   -4.7516   32.2338 C   0  0  0  0  0  0  0  0  0  0  0  0
   -0.8308   -3.3570   32.4423 S   0  0  0  0  0  0  0  0  0  0  0  0
   -0.5366   -2.7194   33.7067 O   0  0  0  0  0  0  0  0  0  0  0  0
   -2.1928   -3.7368   32.1143 O   0  0  0  0  0  0  0  0  0  0  0  0
   -0.4158   -2.2295   31.2046 N   0  0  0  0  0  0  0  0  0  0  0  0
   -0.7111   -0.8016   31.5519 C   0  0  0  0  0  0  0  0  0  0  0  0
   -0.7094    0.1198   30.3118 C   0  0  0  0  0  0  0  0  0  0  0  0
    0.2039   -0.3197   29.2525 N   0  0  0  0  0  0  0  0  0  0  0  0
   -0.2002   -1.6567   28.7768 C   0  0  0  0  0  0  0  0  0  0  0  0
   -0.8806   -2.5704   29.8209 C   0  0  0  0  0  0  0  0  0  0  0  0
    3.0148   -4.0718   33.6046 C   0  0  0  0  0  0  0  0  0  0  0  0
    3.9677   -3.2820   34.2527 C   0  0  0  0  0  0  0  0  0  0  0  0
    4.6464   -3.6466   35.3855 O   0  0  0  0  0  0  0  0  0  0  0  0
    4.8328   -5.0409   35.5923 C   0  0  0  0  0  0  0  0  0  0  0  0
  1  2  1  0
  2  3  1  0
  3  4  2  0
  4  5  1  0
  5  6  2  0
  6  7  1  0
  7  8  1  0
  8  9  2  0
  9 10  1  0
 10 11  2  0
 11 12  1  0
 12 13  2  0
 13 14  1  0
 13 15  1  0
 15 16  1  0
 16 17  1  0
 17 18  2  0
 17 19  2  0
 17 20  1  0
 20 21  1  0
 21 22  1  0
 22 23  1  0
 23 24  1  0
 24 25  1  0
  6 26  1  0
 26 27  2  0
 27 28  1  0
 28 29  1  0
 27  3  1  0
 16  7  2  0
 25 20  1  0
 15 10  1  0
M  END
>  <tags>  (100) 
{'openbind_d68ev3c_c1_fragmenstein', 'fragmenstein_placed'}

>  <fragmenstein_mode>  (100) 
expansion

>  <smiles>  (100) 
C3852-P132

>  <alias>  (100) 
COc1ccc(-c2ccc3nnc(N)n3c2S(=O)(=O)N2CCNCC2)cc1OC

>  <fragmenstein_runtime>  (100) 
4.948983

>  <inchikey>  (100) 
WNOFTNRAQFWLEH-UHFFFAOYSA-N

>  <HIPPO Compound ID>  (100) 
3852

>  <scratch_subdir>  (100) 
/opt/xchem-fragalysis-2/maxwin/BulkDock/SCRATCH/505734/C3852-P132

>  <fragmenstein_outcome>  (100) 
acceptable

>  <fragmenstein_error>  (100) 


>  <ref_pdb>  (100) 
97

>  <HIPPO Pose ID>  (100) 
1543

>  <Energy>  (100) 
67.852275

$$$$
CN(Cc1ccccc1)[C@](O)(NCn1cnc(-c2ccccc2)n1)c1cccc2nncn12
     RDKit          3D

 33 37  0  0  0  0  0  0  0  0999 V2000
    1.6890   -2.7900   32.9652 C   0  0  0  0  0  0  0  0  0  0  0  0
    0.2517   -2.7904   32.7710 N   0  0  0  0  0  0  0  0  0  0  0  0
   -0.3685   -1.5084   32.4808 C   0  0  0  0  0  0  0  0  0  0  0  0
   -0.1898   -1.0657   31.0450 C   0  0  0  0  0  0  0  0  0  0  0  0
   -1.1791   -1.3088   30.0816 C   0  0  0  0  0  0  0  0  0  0  0  0
   -0.9903   -0.9314   28.7529 C   0  0  0  0  0  0  0  0  0  0  0  0
    0.1792   -0.2774   28.3797 C   0  0  0  0  0  0  0  0  0  0  0  0
    1.1650   -0.0099   29.3241 C   0  0  0  0  0  0  0  0  0  0  0  0
    0.9822   -0.4031   30.6492 C   0  0  0  0  0  0  0  0  0  0  0  0
   -0.5047   -4.0111   32.7884 C   0  0  2  0  0  0  0  0  0  0  0  0
   -1.7879   -3.8030   32.2263 O   0  0  0  0  0  0  0  0  0  0  0  0
   -0.7693   -4.4502   34.1129 N   0  0  0  0  0  0  0  0  0  0  0  0
   -0.2608   -3.7880   35.2857 C   0  0  0  0  0  0  0  0  0  0  0  0
   -0.0862   -4.8626   36.2520 N   0  0  0  0  0  0  0  0  0  0  0  0
    0.6929   -5.9656   36.0921 C   0  0  0  0  0  0  0  0  0  0  0  0
    0.6963   -6.6589   37.1995 N   0  0  0  0  0  0  0  0  0  0  0  0
   -0.1082   -5.9200   38.0449 C   0  0  0  0  0  0  0  0  0  0  0  0
   -0.3416   -6.3222   39.4244 C   0  0  0  0  0  0  0  0  0  0  0  0
    0.1596   -7.5459   39.8931 C   0  0  0  0  0  0  0  0  0  0  0  0
   -0.1105   -7.9713   41.1945 C   0  0  0  0  0  0  0  0  0  0  0  0
   -0.8765   -7.1742   42.0428 C   0  0  0  0  0  0  0  0  0  0  0  0
   -1.3720   -5.9514   41.5930 C   0  0  0  0  0  0  0  0  0  0  0  0
   -1.1028   -5.5251   40.2907 C   0  0  0  0  0  0  0  0  0  0  0  0
   -0.6293   -4.8174   37.4760 N   0  0  0  0  0  0  0  0  0  0  0  0
    0.0203   -5.1595   31.9340 C   0  0  0  0  0  0  0  0  0  0  0  0
    0.8514   -4.9530   30.8836 C   0  0  0  0  0  0  0  0  0  0  0  0
    1.1860   -6.0274   29.9801 C   0  0  0  0  0  0  0  0  0  0  0  0
    0.5898   -7.2254   30.0863 C   0  0  0  0  0  0  0  0  0  0  0  0
   -0.3439   -7.4533   31.1074 C   0  0  0  0  0  0  0  0  0  0  0  0
   -1.1238   -8.4784   31.3409 N   0  0  0  0  0  0  0  0  0  0  0  0
   -1.7102   -8.2627   32.5502 N   0  0  0  0  0  0  0  0  0  0  0  0
   -1.2996   -7.0989   32.9977 C   0  0  0  0  0  0  0  0  0  0  0  0
   -0.5194   -6.4669   32.0653 N   0  0  0  0  0  0  0  0  0  0  0  0
  1  2  1  0
  2  3  1  0
  3  4  1  0
  4  5  2  0
  5  6  1  0
  6  7  2  0
  7  8  1  0
  8  9  2  0
  2 10  1  0
 10 11  1  6
 10 12  1  0
 12 13  1  0
 13 14  1  0
 14 15  1  0
 15 16  2  0
 16 17  1  0
 17 18  1  0
 18 19  2  0
 19 20  1  0
 20 21  2  0
 21 22  1  0
 22 23  2  0
 17 24  2  0
 10 25  1  0
 25 26  2  0
 26 27  1  0
 27 28  2  0
 28 29  1  0
 29 30  2  0
 30 31  1  0
 31 32  2  0
 32 33  1  0
  9  4  1  0
 24 14  1  0
 33 25  1  0
 23 18  1  0
 33 29  1  0
M  END
>  <tags>  (101) 
{'openbind_d68ev3c_c1_fragmenstein', 'fragmenstein_placed'}

>  <fragmenstein_mode>  (101) 
expansion

>  <smiles>  (101) 
C3909-P135

>  <alias>  (101) 
CN(Cc1ccccc1)[C@](O)(NCn1cnc(-c2ccccc2)n1)c1cccc2nncn12

>  <fragmenstein_runtime>  (101) 
4.008279

>  <inchikey>  (101) 
JLQGQAAXENSHAE-UHFFFAOYSA-N

>  <HIPPO Compound ID>  (101) 
3909

>  <scratch_subdir>  (101) 
/opt/xchem-fragalysis-2/maxwin/BulkDock/SCRATCH/505735/C3909-P135

>  <fragmenstein_outcome>  (101) 
acceptable

>  <fragmenstein_error>  (101) 


>  <ref_pdb>  (101) 
135

>  <HIPPO Pose ID>  (101) 
1589

>  <Energy>  (101) 
-29.962756

$$$$
CNC(=O)c1ccc(-c2ccc3nnc(N)n3c2Sc2nnc(-c3ccc[nH]3)o2)cc1
     RDKit          3D

 31 35  0  0  0  0  0  0  0  0999 V2000
    2.4797    2.7259   35.0131 C   0  0  0  0  0  0  0  0  0  0  0  0
    2.3042    1.4087   34.4761 N   0  0  0  0  0  0  0  0  0  0  0  0
    3.3408    0.3306   34.1135 C   0  0  0  0  0  0  0  0  0  0  0  0
    4.5048    0.3696   34.1214 O   0  0  0  0  0  0  0  0  0  0  0  0
    2.6765   -0.9269   33.6628 C   0  0  0  0  0  0  0  0  0  0  0  0
    3.1603   -2.1467   34.1485 C   0  0  0  0  0  0  0  0  0  0  0  0
    2.5735   -3.3450   33.7381 C   0  0  0  0  0  0  0  0  0  0  0  0
    1.4929   -3.3293   32.8464 C   0  0  0  0  0  0  0  0  0  0  0  0
    0.8839   -4.5929   32.3755 C   0  0  0  0  0  0  0  0  0  0  0  0
    1.1960   -5.0427   31.0193 C   0  0  0  0  0  0  0  0  0  0  0  0
    0.6414   -6.1367   30.4852 C   0  0  0  0  0  0  0  0  0  0  0  0
   -0.2710   -6.9030   31.2397 C   0  0  0  0  0  0  0  0  0  0  0  0
   -1.0042   -7.9404   30.9108 N   0  0  0  0  0  0  0  0  0  0  0  0
   -1.6417   -8.3592   32.0418 N   0  0  0  0  0  0  0  0  0  0  0  0
   -1.2796   -7.5881   33.0456 C   0  0  0  0  0  0  0  0  0  0  0  0
   -1.5852   -7.8113   34.3499 N   0  0  0  0  0  0  0  0  0  0  0  0
   -0.4862   -6.5448   32.5702 N   0  0  0  0  0  0  0  0  0  0  0  0
    0.0579   -5.3631   33.1410 C   0  0  0  0  0  0  0  0  0  0  0  0
   -0.4076   -4.8671   34.7498 S   0  0  0  0  0  0  0  0  0  0  0  0
    0.6374   -5.9009   35.6525 C   0  0  0  0  0  0  0  0  0  0  0  0
    1.3863   -6.8512   35.1249 N   0  0  0  0  0  0  0  0  0  0  0  0
    1.9817   -7.5056   36.1657 N   0  0  0  0  0  0  0  0  0  0  0  0
    1.5166   -6.9524   37.2711 C   0  0  0  0  0  0  0  0  0  0  0  0
    1.8346   -7.4269   38.5686 C   0  0  0  0  0  0  0  0  0  0  0  0
    1.2353   -7.1741   39.7836 C   0  0  0  0  0  0  0  0  0  0  0  0
    1.9099   -7.9543   40.7548 C   0  0  0  0  0  0  0  0  0  0  0  0
    2.9159   -8.6409   40.1096 C   0  0  0  0  0  0  0  0  0  0  0  0
    2.8559   -8.3174   38.7811 N   0  0  0  0  0  0  0  0  0  0  0  0
    0.6722   -5.9061   37.0165 O   0  0  0  0  0  0  0  0  0  0  0  0
    1.0325   -2.1068   32.3373 C   0  0  0  0  0  0  0  0  0  0  0  0
    1.6264   -0.9078   32.7382 C   0  0  0  0  0  0  0  0  0  0  0  0
  1  2  1  0
  2  3  1  0
  3  4  2  0
  3  5  1  0
  5  6  2  0
  6  7  1  0
  7  8  2  0
  8  9  1  0
  9 10  1  0
 10 11  2  0
 11 12  1  0
 12 13  2  0
 13 14  1  0
 14 15  2  0
 15 16  1  0
 15 17  1  0
 17 18  1  0
 18 19  1  0
 19 20  1  0
 20 21  2  0
 21 22  1  0
 22 23  2  0
 23 24  1  0
 24 25  2  0
 25 26  1  0
 26 27  2  0
 27 28  1  0
 23 29  1  0
  8 30  1  0
 30 31  2  0
 31  5  1  0
 18  9  2  0
 29 20  1  0
 17 12  1  0
 28 24  1  0
M  END
>  <tags>  (102) 
{'openbind_d68ev3c_c1_fragmenstein', 'fragmenstein_placed'}

>  <fragmenstein_mode>  (102) 
expansion

>  <smiles>  (102) 
C3937-P136

>  <alias>  (102) 
CNC(=O)c1ccc(-c2ccc3nnc(N)n3c2Sc2nnc(-c3ccc[nH]3)o2)cc1

>  <fragmenstein_runtime>  (102) 
4.489548

>  <inchikey>  (102) 
LCSVMWAETLBEOW-UHFFFAOYSA-N

>  <HIPPO Compound ID>  (102) 
3937

>  <scratch_subdir>  (102) 
/opt/xchem-fragalysis-2/maxwin/BulkDock/SCRATCH/505735/C3937-P136

>  <fragmenstein_outcome>  (102) 
acceptable

>  <fragmenstein_error>  (102) 


>  <ref_pdb>  (102) 
135

>  <HIPPO Pose ID>  (102) 
1618

>  <Energy>  (102) 
74.11242

$$$$
CNC(=O)c1ccc(-c2ccc3nnc(N)n3c2Nc2nnc(-c3ccccc3)[nH]2)cc1
     RDKit          3D

 32 36  0  0  0  0  0  0  0  0999 V2000
    3.3259    2.3871   35.7454 C   0  0  0  0  0  0  0  0  0  0  0  0
    2.9698    1.1461   35.1220 N   0  0  0  0  0  0  0  0  0  0  0  0
    3.8521    0.0593   34.4819 C   0  0  0  0  0  0  0  0  0  0  0  0
    5.0007    0.0351   34.2909 O   0  0  0  0  0  0  0  0  0  0  0  0
    3.0393   -1.1128   34.0375 C   0  0  0  0  0  0  0  0  0  0  0  0
    3.5535   -2.3970   34.2537 C   0  0  0  0  0  0  0  0  0  0  0  0
    2.8430   -3.5239   33.8333 C   0  0  0  0  0  0  0  0  0  0  0  0
    1.6001   -3.3778   33.2109 C   0  0  0  0  0  0  0  0  0  0  0  0
    0.8435   -4.5371   32.6930 C   0  0  0  0  0  0  0  0  0  0  0  0
    0.6362   -4.6215   31.2398 C   0  0  0  0  0  0  0  0  0  0  0  0
    0.0047   -5.6468   30.6577 C   0  0  0  0  0  0  0  0  0  0  0  0
   -0.5516   -6.6599   31.4616 C   0  0  0  0  0  0  0  0  0  0  0  0
   -1.2572   -7.7194   31.1435 N   0  0  0  0  0  0  0  0  0  0  0  0
   -1.6404   -8.3119   32.3142 N   0  0  0  0  0  0  0  0  0  0  0  0
   -1.1712   -7.6074   33.3234 C   0  0  0  0  0  0  0  0  0  0  0  0
   -1.4348   -7.8119   34.6390 N   0  0  0  0  0  0  0  0  0  0  0  0
   -0.3879   -6.5676   32.8393 N   0  0  0  0  0  0  0  0  0  0  0  0
    0.3859   -5.5543   33.4860 C   0  0  0  0  0  0  0  0  0  0  0  0
    0.7100   -5.7370   34.8587 N   0  0  0  0  0  0  0  0  0  0  0  0
    1.6708   -6.6754   35.1247 C   0  0  0  0  0  0  0  0  0  0  0  0
    2.2289   -7.4896   34.2606 N   0  0  0  0  0  0  0  0  0  0  0  0
    3.1839   -8.2117   34.8934 N   0  0  0  0  0  0  0  0  0  0  0  0
    3.2041   -7.8578   36.1629 C   0  0  0  0  0  0  0  0  0  0  0  0
    4.0966   -8.4559   37.1490 C   0  0  0  0  0  0  0  0  0  0  0  0
    5.2483   -9.1123   36.6765 C   0  0  0  0  0  0  0  0  0  0  0  0
    6.0806   -9.8174   37.5398 C   0  0  0  0  0  0  0  0  0  0  0  0
    5.7770   -9.8709   38.8942 C   0  0  0  0  0  0  0  0  0  0  0  0
    4.6480   -9.2123   39.3818 C   0  0  0  0  0  0  0  0  0  0  0  0
    3.8077   -8.5049   38.5149 C   0  0  0  0  0  0  0  0  0  0  0  0
    2.2386   -6.8925   36.3547 N   0  0  0  0  0  0  0  0  0  0  0  0
    1.1017   -2.0859   32.9713 C   0  0  0  0  0  0  0  0  0  0  0  0
    1.8219   -0.9570   33.3684 C   0  0  0  0  0  0  0  0  0  0  0  0
  1  2  1  0
  2  3  1  0
  3  4  2  0
  3  5  1  0
  5  6  2  0
  6  7  1  0
  7  8  2  0
  8  9  1  0
  9 10  1  0
 10 11  2  0
 11 12  1  0
 12 13  2  0
 13 14  1  0
 14 15  2  0
 15 16  1  0
 15 17  1  0
 17 18  1  0
 18 19  1  0
 19 20  1  0
 20 21  2  0
 21 22  1  0
 22 23  2  0
 23 24  1  0
 24 25  2  0
 25 26  1  0
 26 27  2  0
 27 28  1  0
 28 29  2  0
 23 30  1  0
  8 31  1  0
 31 32  2  0
 32  5  1  0
 18  9  2  0
 30 20  1  0
 17 12  1  0
 29 24  1  0
M  END
>  <tags>  (103) 
{'openbind_d68ev3c_c1_fragmenstein', 'fragmenstein_placed'}

>  <fragmenstein_mode>  (103) 
expansion

>  <smiles>  (103) 
C3938-P136

>  <alias>  (103) 
CNC(=O)c1ccc(-c2ccc3nnc(N)n3c2Nc2nnc(-c3ccccc3)[nH]2)cc1

>  <fragmenstein_runtime>  (103) 
3.115988

>  <inchikey>  (103) 
RQNQMCFRIMCOFE-UHFFFAOYSA-N

>  <HIPPO Compound ID>  (103) 
3938

>  <scratch_subdir>  (103) 
/opt/xchem-fragalysis-2/maxwin/BulkDock/SCRATCH/505735/C3938-P136

>  <fragmenstein_outcome>  (103) 
acceptable

>  <fragmenstein_error>  (103) 


>  <ref_pdb>  (103) 
135

>  <HIPPO Pose ID>  (103) 
1619

>  <Energy>  (103) 
100.039141

$$$$
CN(C)[S@@](=O)(=NCCCO[C@H](F)Sc1ccc(N)cc1)[C@H]1CCN(Cc2conc2Br)C1
     RDKit          3D

 32 34  0  0  0  0  0  0  0  0999 V2000
  -15.1415  -30.3654   26.8609 C   0  0  0  0  0  0  0  0  0  0  0  0
  -14.3124  -31.5411   27.0600 N   0  0  0  0  0  0  0  0  0  0  0  0
  -14.3438  -32.4161   25.8911 C   0  0  0  0  0  0  0  0  0  0  0  0
  -12.8697  -31.4825   27.9948 S   0  0  1  0  0  0  0  0  0  0  0  0
  -12.0166  -32.4480   27.3263 O   0  0  0  0  0  0  0  0  0  0  0  0
  -12.4832  -29.9977   28.0329 N   0  0  0  0  0  0  0  0  0  0  0  0
  -12.8851  -28.9971   29.0046 C   0  0  0  0  0  0  0  0  0  0  0  0
  -12.5100  -27.6058   28.5088 C   0  0  0  0  0  0  0  0  0  0  0  0
  -12.9104  -26.5662   29.5516 C   0  0  0  0  0  0  0  0  0  0  0  0
  -12.5401  -25.2315   29.2251 O   0  0  0  0  0  0  0  0  0  0  0  0
  -11.1404  -25.0455   29.0647 C   0  0  2  0  0  0  0  0  0  0  0  0
  -10.5261  -25.8534   29.9620 F   0  0  0  0  0  0  0  0  0  0  0  0
  -10.6389  -23.3247   29.2997 S   0  0  0  0  0  0  0  0  0  0  0  0
  -10.3593  -23.2751   31.0516 C   0  0  0  0  0  0  0  0  0  0  0  0
  -11.1220  -22.4567   31.8813 C   0  0  0  0  0  0  0  0  0  0  0  0
  -10.8236  -22.3713   33.2427 C   0  0  0  0  0  0  0  0  0  0  0  0
   -9.7319  -23.0618   33.7672 C   0  0  0  0  0  0  0  0  0  0  0  0
   -9.4490  -23.0287   35.1369 N   0  0  0  0  0  0  0  0  0  0  0  0
   -8.9746  -23.8854   32.9433 C   0  0  0  0  0  0  0  0  0  0  0  0
   -9.2951  -23.9907   31.5957 C   0  0  0  0  0  0  0  0  0  0  0  0
  -13.2232  -32.2149   29.5555 C   0  0  1  0  0  0  0  0  0  0  0  0
  -13.6654  -31.3720   30.7195 C   0  0  0  0  0  0  0  0  0  0  0  0
  -14.0541  -32.4347   31.7332 C   0  0  0  0  0  0  0  0  0  0  0  0
  -14.6626  -33.5292   30.9500 N   0  0  0  0  0  0  0  0  0  0  0  0
  -14.1049  -34.8509   31.2840 C   0  0  0  0  0  0  0  0  0  0  0  0
  -14.3501  -35.2925   32.6816 C   0  0  0  0  0  0  0  0  0  0  0  0
  -15.0711  -34.7211   33.7057 C   0  0  0  0  0  0  0  0  0  0  0  0
  -14.9699  -35.4719   34.8305 O   0  0  0  0  0  0  0  0  0  0  0  0
  -14.2062  -36.5961   34.5625 N   0  0  0  0  0  0  0  0  0  0  0  0
  -13.8646  -36.4793   33.2800 C   0  0  0  0  0  0  0  0  0  0  0  0
  -12.8562  -37.7837   32.3695 Br  0  0  0  0  0  0  0  0  0  0  0  0
  -14.3537  -33.2304   29.5223 C   0  0  0  0  0  0  0  0  0  0  0  0
  1  2  1  0
  2  3  1  0
  4  2  1  6
  4  5  2  0
  4  6  2  0
  6  7  1  0
  7  8  1  0
  8  9  1  0
  9 10  1  0
 10 11  1  0
 11 12  1  1
 11 13  1  0
 13 14  1  0
 14 15  2  0
 15 16  1  0
 16 17  2  0
 17 18  1  0
 17 19  1  0
 19 20  2  0
  4 21  1  0
 21 22  1  1
 22 23  1  0
 23 24  1  0
 24 25  1  0
 25 26  1  0
 26 27  2  0
 27 28  1  0
 28 29  1  0
 29 30  2  0
 30 31  1  0
 24 32  1  0
 20 14  1  0
 32 21  1  0
 30 26  1  0
M  END
>  <tags>  (104) 
{'openbind_d68ev3c_c1_fragmenstein', 'fragmenstein_placed'}

>  <fragmenstein_mode>  (104) 
expansion

>  <smiles>  (104) 
C3316-P88

>  <alias>  (104) 
CN(C)[S@@](=O)(=NCCCO[C@H](F)Sc1ccc(N)cc1)[C@H]1CCN(Cc2conc2Br)C1

>  <fragmenstein_runtime>  (104) 
20.691909

>  <inchikey>  (104) 
HHKGRDDYWWYCKB-UHFFFAOYSA-N

>  <HIPPO Compound ID>  (104) 
3316

>  <scratch_subdir>  (104) 
/opt/xchem-fragalysis-2/maxwin/BulkDock/SCRATCH/505735/C3316-P88

>  <fragmenstein_outcome>  (104) 
acceptable

>  <fragmenstein_error>  (104) 


>  <ref_pdb>  (104) 
135

>  <HIPPO Pose ID>  (104) 
1651

>  <Energy>  (104) 
-67.938489

$$$$
COC(=O)c1ccc(OC(F)(F)F)c(C)c1[C@H]1CN(c2cccc3nncn23)CCO1
     RDKit          3D

 31 34  0  0  0  0  0  0  0  0999 V2000
  -10.0689   -1.6873    3.8205 C   0  0  0  0  0  0  0  0  0  0  0  0
  -10.9538   -2.5550    4.5429 O   0  0  0  0  0  0  0  0  0  0  0  0
  -10.8917   -2.6820    5.8898 C   0  0  0  0  0  0  0  0  0  0  0  0
  -11.8057   -3.0985    6.5845 O   0  0  0  0  0  0  0  0  0  0  0  0
   -9.6145   -2.2910    6.5107 C   0  0  0  0  0  0  0  0  0  0  0  0
   -8.5471   -3.1801    6.3599 C   0  0  0  0  0  0  0  0  0  0  0  0
   -7.2936   -2.8312    6.8353 C   0  0  0  0  0  0  0  0  0  0  0  0
   -7.1008   -1.5738    7.4074 C   0  0  0  0  0  0  0  0  0  0  0  0
   -5.8807   -1.2428    7.9396 O   0  0  0  0  0  0  0  0  0  0  0  0
   -4.8805   -1.0516    6.9489 C   0  0  0  0  0  0  0  0  0  0  0  0
   -4.7024   -2.1541    6.1900 F   0  0  0  0  0  0  0  0  0  0  0  0
   -3.7067   -0.7752    7.5628 F   0  0  0  0  0  0  0  0  0  0  0  0
   -5.1831   -0.0000    6.1549 F   0  0  0  0  0  0  0  0  0  0  0  0
   -8.1764   -0.6762    7.5819 C   0  0  0  0  0  0  0  0  0  0  0  0
   -7.8883    0.6567    8.2096 C   0  0  0  0  0  0  0  0  0  0  0  0
   -9.4833   -1.0693    7.2046 C   0  0  0  0  0  0  0  0  0  0  0  0
  -10.7335   -0.2571    7.5093 C   0  0  1  0  0  0  0  0  0  0  0  0
  -10.9614    0.0907    9.0106 C   0  0  0  0  0  0  0  0  0  0  0  0
  -12.0215    1.1260    9.1846 N   0  0  0  0  0  0  0  0  0  0  0  0
  -12.5132    1.3824   10.4637 C   0  0  0  0  0  0  0  0  0  0  0  0
  -13.6203    0.8149   10.9904 C   0  0  0  0  0  0  0  0  0  0  0  0
  -14.0304    1.1375   12.3509 C   0  0  0  0  0  0  0  0  0  0  0  0
  -13.3250    1.9931   13.1158 C   0  0  0  0  0  0  0  0  0  0  0  0
  -12.1610    2.6060   12.5821 C   0  0  0  0  0  0  0  0  0  0  0  0
  -11.2746    3.4392   13.0856 N   0  0  0  0  0  0  0  0  0  0  0  0
  -10.3547    3.7271   12.1046 N   0  0  0  0  0  0  0  0  0  0  0  0
  -10.6948    3.0477   11.0320 C   0  0  0  0  0  0  0  0  0  0  0  0
  -11.8088    2.2904   11.2799 N   0  0  0  0  0  0  0  0  0  0  0  0
  -12.8625    1.2888    7.9904 C   0  0  0  0  0  0  0  0  0  0  0  0
  -11.9687    1.6452    6.7821 C   0  0  0  0  0  0  0  0  0  0  0  0
  -10.7321    0.9138    6.6797 O   0  0  0  0  0  0  0  0  0  0  0  0
  1  2  1  0
  2  3  1  0
  3  4  2  0
  3  5  1  0
  5  6  2  0
  6  7  1  0
  7  8  2  0
  8  9  1  0
  9 10  1  0
 10 11  1  0
 10 12  1  0
 10 13  1  0
  8 14  1  0
 14 15  1  0
 14 16  2  0
 17 16  1  1
 17 18  1  0
 18 19  1  0
 19 20  1  0
 20 21  2  0
 21 22  1  0
 22 23  2  0
 23 24  1  0
 24 25  2  0
 25 26  1  0
 26 27  2  0
 27 28  1  0
 19 29  1  0
 29 30  1  0
 30 31  1  0
 16  5  1  0
 31 17  1  0
 28 20  1  0
 28 24  1  0
M  END
>  <tags>  (105) 
{'openbind_d68ev3c_c1_fragmenstein', 'fragmenstein_placed'}

>  <fragmenstein_mode>  (105) 
expansion

>  <smiles>  (105) 
C3986-P139

>  <alias>  (105) 
COC(=O)c1ccc(OC(F)(F)F)c(C)c1[C@H]1CN(c2cccc3nncn23)CCO1

>  <fragmenstein_runtime>  (105) 
9.400627

>  <inchikey>  (105) 
ZBZOMXXYZDZQCA-UHFFFAOYSA-N

>  <HIPPO Compound ID>  (105) 
3986

>  <scratch_subdir>  (105) 
/opt/xchem-fragalysis-2/maxwin/BulkDock/SCRATCH/505735/C3986-P139

>  <fragmenstein_outcome>  (105) 
acceptable

>  <fragmenstein_error>  (105) 


>  <ref_pdb>  (105) 
135

>  <HIPPO Pose ID>  (105) 
1657

>  <Energy>  (105) 
192.828506

$$$$
FC(F)(OCOc1ccc2nc(Sc3cccc4nncn34)[nH]c2c1)Oc1cccc([C@H]2CN(c3cccc4nncn34)CCO2)c1
     RDKit          3D

 47 54  0  0  0  0  0  0  0  0999 V2000
   -4.8233   -0.7109    5.9658 F   0  0  0  0  0  0  0  0  0  0  0  0
   -4.7768   -0.0738    7.1612 C   0  0  0  0  0  0  0  0  0  0  0  0
   -3.5256   -0.3081    7.6463 F   0  0  0  0  0  0  0  0  0  0  0  0
   -4.8301    1.3250    6.9435 O   0  0  0  0  0  0  0  0  0  0  0  0
   -6.1414    1.8463    6.8213 C   0  0  0  0  0  0  0  0  0  0  0  0
   -6.0897    3.2863    6.6994 O   0  0  0  0  0  0  0  0  0  0  0  0
   -7.0736    3.9110    7.4384 C   0  0  0  0  0  0  0  0  0  0  0  0
   -8.4273    3.5930    7.2829 C   0  0  0  0  0  0  0  0  0  0  0  0
   -9.3984    4.1751    8.1151 C   0  0  0  0  0  0  0  0  0  0  0  0
   -8.9930    5.0720    9.1138 C   0  0  0  0  0  0  0  0  0  0  0  0
   -9.7441    5.6952   10.0746 N   0  0  0  0  0  0  0  0  0  0  0  0
   -8.8803    6.3755   10.7832 C   0  0  0  0  0  0  0  0  0  0  0  0
   -9.2248    7.3366   12.1780 S   0  0  0  0  0  0  0  0  0  0  0  0
  -10.6365    8.1318   11.5440 C   0  0  0  0  0  0  0  0  0  0  0  0
  -10.5192    9.3488   10.9687 C   0  0  0  0  0  0  0  0  0  0  0  0
  -11.6923   10.0059   10.4135 C   0  0  0  0  0  0  0  0  0  0  0  0
  -12.9040    9.4231   10.4518 C   0  0  0  0  0  0  0  0  0  0  0  0
  -13.0487    8.1465   11.0569 C   0  0  0  0  0  0  0  0  0  0  0  0
  -14.0961    7.3679   11.2196 N   0  0  0  0  0  0  0  0  0  0  0  0
  -13.6792    6.2491   11.9009 N   0  0  0  0  0  0  0  0  0  0  0  0
  -12.3897    6.3774   12.1383 C   0  0  0  0  0  0  0  0  0  0  0  0
  -11.9151    7.5458   11.5999 N   0  0  0  0  0  0  0  0  0  0  0  0
   -7.6057    6.2501   10.3046 N   0  0  0  0  0  0  0  0  0  0  0  0
   -7.6465    5.4134    9.2121 C   0  0  0  0  0  0  0  0  0  0  0  0
   -6.6582    4.8808    8.3669 C   0  0  0  0  0  0  0  0  0  0  0  0
   -5.6759   -0.6295    8.1228 O   0  0  0  0  0  0  0  0  0  0  0  0
   -6.8020   -1.2109    7.6133 C   0  0  0  0  0  0  0  0  0  0  0  0
   -6.7624   -2.3484    6.8132 C   0  0  0  0  0  0  0  0  0  0  0  0
   -7.9529   -2.9015    6.3482 C   0  0  0  0  0  0  0  0  0  0  0  0
   -9.1753   -2.3114    6.6766 C   0  0  0  0  0  0  0  0  0  0  0  0
   -9.2352   -1.1862    7.5162 C   0  0  0  0  0  0  0  0  0  0  0  0
  -10.5846   -0.5505    7.7971 C   0  0  1  0  0  0  0  0  0  0  0  0
  -10.7004    0.2749    9.1096 C   0  0  0  0  0  0  0  0  0  0  0  0
  -12.0441    0.9081    9.2574 N   0  0  0  0  0  0  0  0  0  0  0  0
  -12.5868    1.1882   10.5204 C   0  0  0  0  0  0  0  0  0  0  0  0
  -13.7535    0.6665   10.9654 C   0  0  0  0  0  0  0  0  0  0  0  0
  -14.2551    0.9912   12.2933 C   0  0  0  0  0  0  0  0  0  0  0  0
  -13.5736    1.8005   13.1242 C   0  0  0  0  0  0  0  0  0  0  0  0
  -12.3493    2.3655   12.6892 C   0  0  0  0  0  0  0  0  0  0  0  0
  -11.4661    3.1381   13.2849 N   0  0  0  0  0  0  0  0  0  0  0  0
  -10.4875    3.4461   12.3757 N   0  0  0  0  0  0  0  0  0  0  0  0
  -10.7865    2.8239   11.2578 C   0  0  0  0  0  0  0  0  0  0  0  0
  -11.9187    2.0704   11.4034 N   0  0  0  0  0  0  0  0  0  0  0  0
  -12.8963    0.7669    8.0616 C   0  0  0  0  0  0  0  0  0  0  0  0
  -12.0699    1.0572    6.7984 C   0  0  0  0  0  0  0  0  0  0  0  0
  -10.8733    0.2779    6.6515 O   0  0  0  0  0  0  0  0  0  0  0  0
   -8.0305   -0.6707    8.0077 C   0  0  0  0  0  0  0  0  0  0  0  0
  1  2  1  0
  2  3  1  0
  2  4  1  0
  4  5  1  0
  5  6  1  0
  6  7  1  0
  7  8  2  0
  8  9  1  0
  9 10  2  0
 10 11  1  0
 11 12  2  0
 12 13  1  0
 13 14  1  0
 14 15  2  0
 15 16  1  0
 16 17  2  0
 17 18  1  0
 18 19  2  0
 19 20  1  0
 20 21  2  0
 21 22  1  0
 12 23  1  0
 23 24  1  0
 24 25  2  0
  2 26  1  0
 26 27  1  0
 27 28  2  0
 28 29  1  0
 29 30  2  0
 30 31  1  0
 32 31  1  6
 32 33  1  0
 33 34  1  0
 34 35  1  0
 35 36  2  0
 36 37  1  0
 37 38  2  0
 38 39  1  0
 39 40  2  0
 40 41  1  0
 41 42  2  0
 42 43  1  0
 34 44  1  0
 44 45  1  0
 45 46  1  0
 31 47  2  0
 25  7  1  0
 47 27  1  0
 24 10  1  0
 46 32  1  0
 22 14  1  0
 43 35  1  0
 22 18  1  0
 43 39  1  0
M  END
>  <tags>  (106) 
{'openbind_d68ev3c_c1_fragmenstein', 'fragmenstein_placed'}

>  <fragmenstein_mode>  (106) 
expansion

>  <smiles>  (106) 
C2740-P139

>  <alias>  (106) 
FC(F)(OCOc1ccc2nc(Sc3cccc4nncn34)[nH]c2c1)Oc1cccc([C@H]2CN(c3cccc4nncn34)CCO2)c1

>  <fragmenstein_runtime>  (106) 
211.824255

>  <inchikey>  (106) 
CBCPQDXJTGJQGF-UHFFFAOYSA-N

>  <HIPPO Compound ID>  (106) 
2740

>  <scratch_subdir>  (106) 
/opt/xchem-fragalysis-2/maxwin/BulkDock/SCRATCH/505735/C2740-P139

>  <fragmenstein_outcome>  (106) 
acceptable

>  <fragmenstein_error>  (106) 


>  <ref_pdb>  (106) 
135

>  <HIPPO Pose ID>  (106) 
1663

>  <Energy>  (106) 
152.836302

$$$$
O=C(CN1C=CN2NCNN2C1=O)NCc1ccccc1
     RDKit          3D

 21 23  0  0  0  0  0  0  0  0999 V2000
    2.9084   -6.8092   34.5426 O   0  0  0  0  0  0  0  0  0  0  0  0
    2.6769   -5.9500   35.3005 C   0  0  0  0  0  0  0  0  0  0  0  0
    1.7082   -4.7734   35.0111 C   0  0  0  0  0  0  0  0  0  0  0  0
    0.8216   -5.1343   33.9205 N   0  0  0  0  0  0  0  0  0  0  0  0
    1.1437   -4.7809   32.6238 C   0  0  0  0  0  0  0  0  0  0  0  0
    0.4445   -5.2898   31.6081 C   0  0  0  0  0  0  0  0  0  0  0  0
   -0.6178   -6.1288   31.8094 N   0  0  0  0  0  0  0  0  0  0  0  0
   -0.7671   -7.1896   30.9001 N   0  0  0  0  0  0  0  0  0  0  0  0
   -1.4728   -8.1799   31.7008 C   0  0  0  0  0  0  0  0  0  0  0  0
   -1.0838   -7.9288   33.0590 N   0  0  0  0  0  0  0  0  0  0  0  0
   -0.8863   -6.5744   33.1090 N   0  0  0  0  0  0  0  0  0  0  0  0
   -0.1824   -6.0763   34.2190 C   0  0  0  0  0  0  0  0  0  0  0  0
   -0.3947   -6.4795   35.3696 O   0  0  0  0  0  0  0  0  0  0  0  0
    3.1902   -5.7196   36.7464 N   0  0  0  0  0  0  0  0  0  0  0  0
    4.0119   -6.5420   37.5839 C   0  0  0  0  0  0  0  0  0  0  0  0
    3.2271   -7.0656   38.7562 C   0  0  0  0  0  0  0  0  0  0  0  0
    3.8704   -7.2759   39.9831 C   0  0  0  0  0  0  0  0  0  0  0  0
    3.1692   -7.7959   41.0723 C   0  0  0  0  0  0  0  0  0  0  0  0
    1.8197   -8.1151   40.9472 C   0  0  0  0  0  0  0  0  0  0  0  0
    1.1705   -7.9199   39.7329 C   0  0  0  0  0  0  0  0  0  0  0  0
    1.8702   -7.4113   38.6400 C   0  0  0  0  0  0  0  0  0  0  0  0
  1  2  2  0
  2  3  1  0
  3  4  1  0
  4  5  1  0
  5  6  2  0
  6  7  1  0
  7  8  1  0
  8  9  1  0
  9 10  1  0
 10 11  1  0
 11 12  1  0
 12 13  2  0
  2 14  1  0
 14 15  1  0
 15 16  1  0
 16 17  2  0
 17 18  1  0
 18 19  2  0
 19 20  1  0
 20 21  2  0
 12  4  1  0
 21 16  1  0
 11  7  1  0
M  END
>  <tags>  (107) 
{'openbind_d68ev3c_c1_fragmenstein', 'fragmenstein_placed'}

>  <fragmenstein_mode>  (107) 
expansion

>  <smiles>  (107) 
C3998-P140

>  <alias>  (107) 
O=C(CN1C=CN2NCNN2C1=O)NCc1ccccc1

>  <fragmenstein_runtime>  (107) 
2.351552

>  <inchikey>  (107) 
DJALVGSNTLLXML-UHFFFAOYSA-N

>  <HIPPO Compound ID>  (107) 
3998

>  <scratch_subdir>  (107) 
/opt/xchem-fragalysis-2/maxwin/BulkDock/SCRATCH/505735/C3998-P140

>  <fragmenstein_outcome>  (107) 
acceptable

>  <fragmenstein_error>  (107) 


>  <ref_pdb>  (107) 
135

>  <HIPPO Pose ID>  (107) 
1666

>  <Energy>  (107) 
68.41443

$$$$
O=C(Cn1c(CCNS(=O)(=O)c2cscn2)cc(=O)[nH]c1=O)NCc1ccccc1
     RDKit          3D

 30 32  0  0  0  0  0  0  0  0999 V2000
    2.6677   -7.1191   34.3364 O   0  0  0  0  0  0  0  0  0  0  0  0
    2.3027   -6.1780   34.9271 C   0  0  0  0  0  0  0  0  0  0  0  0
    1.2496   -5.1888   34.3627 C   0  0  0  0  0  0  0  0  0  0  0  0
    0.3755   -5.9259   33.4548 N   0  0  0  0  0  0  0  0  0  0  0  0
    0.5316   -5.9371   32.0671 C   0  0  0  0  0  0  0  0  0  0  0  0
    1.5607   -5.0930   31.3408 C   0  0  0  0  0  0  0  0  0  0  0  0
    0.9711   -3.8146   30.7370 C   0  0  0  0  0  0  0  0  0  0  0  0
    0.5158   -2.9311   31.8153 N   0  0  0  0  0  0  0  0  0  0  0  0
   -1.0597   -2.3285   31.7292 S   0  0  0  0  0  0  0  0  0  0  0  0
   -1.9572   -3.4087   31.3768 O   0  0  0  0  0  0  0  0  0  0  0  0
   -1.2483   -1.5074   32.9014 O   0  0  0  0  0  0  0  0  0  0  0  0
   -1.0898   -1.2141   30.3771 C   0  0  0  0  0  0  0  0  0  0  0  0
   -1.3923   -1.5964   29.0857 C   0  0  0  0  0  0  0  0  0  0  0  0
   -1.2285   -0.2581   28.0310 S   0  0  0  0  0  0  0  0  0  0  0  0
   -0.7556    0.7161   29.3527 C   0  0  0  0  0  0  0  0  0  0  0  0
   -0.6822    0.1148   30.5203 N   0  0  0  0  0  0  0  0  0  0  0  0
   -0.2355   -6.7420   31.3227 C   0  0  0  0  0  0  0  0  0  0  0  0
   -1.2047   -7.6302   31.9546 C   0  0  0  0  0  0  0  0  0  0  0  0
   -1.8460   -8.4015   31.2547 O   0  0  0  0  0  0  0  0  0  0  0  0
   -1.3112   -7.5446   33.3018 N   0  0  0  0  0  0  0  0  0  0  0  0
   -0.5608   -6.7393   34.1055 C   0  0  0  0  0  0  0  0  0  0  0  0
   -0.7043   -6.7863   35.3267 O   0  0  0  0  0  0  0  0  0  0  0  0
    2.6757   -5.6754   36.3464 N   0  0  0  0  0  0  0  0  0  0  0  0
    3.6401   -6.1720   37.2885 C   0  0  0  0  0  0  0  0  0  0  0  0
    3.0043   -6.8052   38.4991 C   0  0  0  0  0  0  0  0  0  0  0  0
    3.7890   -7.0285   39.6418 C   0  0  0  0  0  0  0  0  0  0  0  0
    3.2498   -7.6524   40.7691 C   0  0  0  0  0  0  0  0  0  0  0  0
    1.9207   -8.0645   40.7687 C   0  0  0  0  0  0  0  0  0  0  0  0
    1.1321   -7.8556   39.6421 C   0  0  0  0  0  0  0  0  0  0  0  0
    1.6701   -7.2409   38.5112 C   0  0  0  0  0  0  0  0  0  0  0  0
  1  2  2  0
  2  3  1  0
  3  4  1  0
  4  5  1  0
  5  6  1  0
  6  7  1  0
  7  8  1  0
  8  9  1  0
  9 10  2  0
  9 11  2  0
  9 12  1  0
 12 13  2  0
 13 14  1  0
 14 15  1  0
 15 16  2  0
  5 17  2  0
 17 18  1  0
 18 19  2  0
 18 20  1  0
 20 21  1  0
 21 22  2  0
  2 23  1  0
 23 24  1  0
 24 25  1  0
 25 26  2  0
 26 27  1  0
 27 28  2  0
 28 29  1  0
 29 30  2  0
 21  4  1  0
 30 25  1  0
 16 12  1  0
M  END
>  <tags>  (108) 
{'openbind_d68ev3c_c1_fragmenstein', 'fragmenstein_placed'}

>  <fragmenstein_mode>  (108) 
expansion

>  <smiles>  (108) 
C4028-P140

>  <alias>  (108) 
O=C(Cn1c(CCNS(=O)(=O)c2cscn2)cc(=O)[nH]c1=O)NCc1ccccc1

>  <fragmenstein_runtime>  (108) 
3.314131

>  <inchikey>  (108) 
PVIRLSPJORGMSQ-UHFFFAOYSA-N

>  <HIPPO Compound ID>  (108) 
4028

>  <scratch_subdir>  (108) 
/opt/xchem-fragalysis-2/maxwin/BulkDock/SCRATCH/505735/C4028-P140

>  <fragmenstein_outcome>  (108) 
acceptable

>  <fragmenstein_error>  (108) 


>  <ref_pdb>  (108) 
135

>  <HIPPO Pose ID>  (108) 
1687

>  <Energy>  (108) 
-37.454654

$$$$
Nc1ccc(S(=O)(=O)NCCc2cc(=O)[nH]c(=O)n2CC(=O)NCc2ccccc2)cn1
     RDKit          3D

 32 34  0  0  0  0  0  0  0  0999 V2000
   -1.8054    1.6120   27.1358 N   0  0  0  0  0  0  0  0  0  0  0  0
   -1.5006    0.6868   28.1220 C   0  0  0  0  0  0  0  0  0  0  0  0
   -1.6782   -0.6686   27.8929 C   0  0  0  0  0  0  0  0  0  0  0  0
   -1.5291   -1.5696   28.9418 C   0  0  0  0  0  0  0  0  0  0  0  0
   -1.2258   -1.0717   30.1979 C   0  0  0  0  0  0  0  0  0  0  0  0
   -1.2242   -2.0960   31.6194 S   0  0  0  0  0  0  0  0  0  0  0  0
   -1.2629   -1.2379   32.7820 O   0  0  0  0  0  0  0  0  0  0  0  0
   -2.1800   -3.1661   31.4268 O   0  0  0  0  0  0  0  0  0  0  0  0
    0.3081   -2.7530   31.6014 N   0  0  0  0  0  0  0  0  0  0  0  0
    0.7152   -3.7103   30.5824 C   0  0  0  0  0  0  0  0  0  0  0  0
    1.3916   -4.9161   31.2532 C   0  0  0  0  0  0  0  0  0  0  0  0
    0.4298   -5.8120   32.0166 C   0  0  0  0  0  0  0  0  0  0  0  0
   -0.3069   -6.6634   31.2923 C   0  0  0  0  0  0  0  0  0  0  0  0
   -1.2091   -7.6071   31.9438 C   0  0  0  0  0  0  0  0  0  0  0  0
   -1.8212   -8.4139   31.2578 O   0  0  0  0  0  0  0  0  0  0  0  0
   -1.2927   -7.5257   33.2926 N   0  0  0  0  0  0  0  0  0  0  0  0
   -0.5663   -6.6830   34.0795 C   0  0  0  0  0  0  0  0  0  0  0  0
   -0.6754   -6.7419   35.3040 O   0  0  0  0  0  0  0  0  0  0  0  0
    0.3109   -5.8174   33.4099 N   0  0  0  0  0  0  0  0  0  0  0  0
    1.1800   -5.0605   34.3065 C   0  0  0  0  0  0  0  0  0  0  0  0
    2.2815   -6.0186   34.8369 C   0  0  0  0  0  0  0  0  0  0  0  0
    2.6647   -6.9373   34.2230 O   0  0  0  0  0  0  0  0  0  0  0  0
    2.7247   -5.4803   36.2237 N   0  0  0  0  0  0  0  0  0  0  0  0
    3.6594   -6.0143   37.1775 C   0  0  0  0  0  0  0  0  0  0  0  0
    3.0075   -6.6935   38.3553 C   0  0  0  0  0  0  0  0  0  0  0  0
    3.7866   -6.9734   39.4912 C   0  0  0  0  0  0  0  0  0  0  0  0
    3.2408   -7.6406   40.5906 C   0  0  0  0  0  0  0  0  0  0  0  0
    1.9091   -8.0412   40.5692 C   0  0  0  0  0  0  0  0  0  0  0  0
    1.1257   -7.7757   39.4505 C   0  0  0  0  0  0  0  0  0  0  0  0
    1.6703   -7.1163   38.3470 C   0  0  0  0  0  0  0  0  0  0  0  0
   -1.0414    0.2886   30.3449 C   0  0  0  0  0  0  0  0  0  0  0  0
   -1.1549    1.1709   29.3251 N   0  0  0  0  0  0  0  0  0  0  0  0
  1  2  1  0
  2  3  2  0
  3  4  1  0
  4  5  2  0
  5  6  1  0
  6  7  2  0
  6  8  2  0
  6  9  1  0
  9 10  1  0
 10 11  1  0
 11 12  1  0
 12 13  2  0
 13 14  1  0
 14 15  2  0
 14 16  1  0
 16 17  1  0
 17 18  2  0
 17 19  1  0
 19 20  1  0
 20 21  1  0
 21 22  2  0
 21 23  1  0
 23 24  1  0
 24 25  1  0
 25 26  2  0
 26 27  1  0
 27 28  2  0
 28 29  1  0
 29 30  2  0
  5 31  1  0
 31 32  2  0
 32  2  1  0
 19 12  1  0
 30 25  1  0
M  END
>  <tags>  (109) 
{'openbind_d68ev3c_c1_fragmenstein', 'fragmenstein_placed'}

>  <fragmenstein_mode>  (109) 
expansion

>  <smiles>  (109) 
C4029-P140

>  <alias>  (109) 
Nc1ccc(S(=O)(=O)NCCc2cc(=O)[nH]c(=O)n2CC(=O)NCc2ccccc2)cn1

>  <fragmenstein_runtime>  (109) 
5.412785

>  <inchikey>  (109) 
CTWPYFRJQJZSGU-UHFFFAOYSA-N

>  <HIPPO Compound ID>  (109) 
4029

>  <scratch_subdir>  (109) 
/opt/xchem-fragalysis-2/maxwin/BulkDock/SCRATCH/505735/C4029-P140

>  <fragmenstein_outcome>  (109) 
acceptable

>  <fragmenstein_error>  (109) 


>  <ref_pdb>  (109) 
135

>  <HIPPO Pose ID>  (109) 
1688

>  <Energy>  (109) 
-137.822565

$$$$
O=C(Cn1c(CCNS(=O)(=O)N2CCOCC2)cc(=O)[nH]c1=O)NCc1ccccc1
     RDKit          3D

 31 33  0  0  0  0  0  0  0  0999 V2000
    3.2188   -5.4684   33.7357 O   0  0  0  0  0  0  0  0  0  0  0  0
    2.3764   -5.3282   34.5336 C   0  0  0  0  0  0  0  0  0  0  0  0
    1.0139   -4.6965   34.1656 C   0  0  0  0  0  0  0  0  0  0  0  0
    0.2617   -5.6495   33.3504 N   0  0  0  0  0  0  0  0  0  0  0  0
    0.3422   -5.6812   31.9545 C   0  0  0  0  0  0  0  0  0  0  0  0
    1.2125   -4.7333   31.1428 C   0  0  0  0  0  0  0  0  0  0  0  0
    0.4361   -3.5971   30.4588 C   0  0  0  0  0  0  0  0  0  0  0  0
    0.1121   -2.5633   31.4347 N   0  0  0  0  0  0  0  0  0  0  0  0
   -1.4160   -1.9451   31.5955 S   0  0  0  0  0  0  0  0  0  0  0  0
   -2.3626   -3.0020   31.3336 O   0  0  0  0  0  0  0  0  0  0  0  0
   -1.4075   -1.2133   32.8388 O   0  0  0  0  0  0  0  0  0  0  0  0
   -1.4479   -0.8250   30.3663 N   0  0  0  0  0  0  0  0  0  0  0  0
   -0.7141    0.4545   30.5560 C   0  0  0  0  0  0  0  0  0  0  0  0
   -0.8417    1.3292   29.3010 C   0  0  0  0  0  0  0  0  0  0  0  0
   -0.2828    0.7283   28.1351 O   0  0  0  0  0  0  0  0  0  0  0  0
   -0.3393   -0.6961   28.1724 C   0  0  0  0  0  0  0  0  0  0  0  0
   -1.5150   -1.2627   28.9520 C   0  0  0  0  0  0  0  0  0  0  0  0
   -0.3381   -6.6134   31.2758 C   0  0  0  0  0  0  0  0  0  0  0  0
   -1.1629   -7.5932   31.9756 C   0  0  0  0  0  0  0  0  0  0  0  0
   -1.7789   -8.4257   31.3240 O   0  0  0  0  0  0  0  0  0  0  0  0
   -1.1645   -7.5125   33.3299 N   0  0  0  0  0  0  0  0  0  0  0  0
   -0.4935   -6.5822   34.0722 C   0  0  0  0  0  0  0  0  0  0  0  0
   -0.5543   -6.6194   35.3007 O   0  0  0  0  0  0  0  0  0  0  0  0
    2.3167   -5.7681   36.0187 N   0  0  0  0  0  0  0  0  0  0  0  0
    3.3152   -6.3847   36.8513 C   0  0  0  0  0  0  0  0  0  0  0  0
    2.7999   -6.8733   38.1783 C   0  0  0  0  0  0  0  0  0  0  0  0
    3.6730   -6.9366   39.2773 C   0  0  0  0  0  0  0  0  0  0  0  0
    3.2424   -7.4383   40.5083 C   0  0  0  0  0  0  0  0  0  0  0  0
    1.9343   -7.8871   40.6575 C   0  0  0  0  0  0  0  0  0  0  0  0
    1.0607   -7.8397   39.5760 C   0  0  0  0  0  0  0  0  0  0  0  0
    1.4918   -7.3501   38.3416 C   0  0  0  0  0  0  0  0  0  0  0  0
  1  2  2  0
  2  3  1  0
  3  4  1  0
  4  5  1  0
  5  6  1  0
  6  7  1  0
  7  8  1  0
  8  9  1  0
  9 10  2  0
  9 11  2  0
  9 12  1  0
 12 13  1  0
 13 14  1  0
 14 15  1  0
 15 16  1  0
 16 17  1  0
  5 18  2  0
 18 19  1  0
 19 20  2  0
 19 21  1  0
 21 22  1  0
 22 23  2  0
  2 24  1  0
 24 25  1  0
 25 26  1  0
 26 27  2  0
 27 28  1  0
 28 29  2  0
 29 30  1  0
 30 31  2  0
 22  4  1  0
 31 26  1  0
 17 12  1  0
M  END
>  <tags>  (110) 
{'openbind_d68ev3c_c1_fragmenstein', 'fragmenstein_placed'}

>  <fragmenstein_mode>  (110) 
expansion

>  <smiles>  (110) 
C4030-P140

>  <alias>  (110) 
O=C(Cn1c(CCNS(=O)(=O)N2CCOCC2)cc(=O)[nH]c1=O)NCc1ccccc1

>  <fragmenstein_runtime>  (110) 
8.57664

>  <inchikey>  (110) 
CJTVOFQSMDSAQV-UHFFFAOYSA-N

>  <HIPPO Compound ID>  (110) 
4030

>  <scratch_subdir>  (110) 
/opt/xchem-fragalysis-2/maxwin/BulkDock/SCRATCH/505735/C4030-P140

>  <fragmenstein_outcome>  (110) 
acceptable

>  <fragmenstein_error>  (110) 


>  <ref_pdb>  (110) 
135

>  <HIPPO Pose ID>  (110) 
1690

>  <Energy>  (110) 
-168.023362

$$$$
O=S1(=O)c2ccc([C@H]3CN(c4cccc5nncn45)CCO3)cc2O[C@H]1F
     RDKit          3D

 27 31  0  0  0  0  0  0  0  0999 V2000
   -4.7480   -2.9173    5.2751 O   0  0  0  0  0  0  0  0  0  0  0  0
   -4.8634   -1.7140    6.0719 S   0  0  0  0  0  0  0  0  0  0  0  0
   -4.0104   -1.4379    7.2109 O   0  0  0  0  0  0  0  0  0  0  0  0
   -6.5079   -1.5730    6.6030 C   0  0  0  0  0  0  0  0  0  0  0  0
   -7.3042   -2.5982    7.0635 C   0  0  0  0  0  0  0  0  0  0  0  0
   -8.6214   -2.2872    7.3842 C   0  0  0  0  0  0  0  0  0  0  0  0
   -9.1295   -0.9809    7.2007 C   0  0  0  0  0  0  0  0  0  0  0  0
  -10.5823   -0.7069    7.5445 C   0  0  1  0  0  0  0  0  0  0  0  0
  -10.7426    0.0399    8.8952 C   0  0  0  0  0  0  0  0  0  0  0  0
  -12.1273    0.5737    9.0825 N   0  0  0  0  0  0  0  0  0  0  0  0
  -12.5335    1.0548   10.3343 C   0  0  0  0  0  0  0  0  0  0  0  0
  -13.5011    0.4844   11.0881 C   0  0  0  0  0  0  0  0  0  0  0  0
  -13.8484    1.0357   12.3899 C   0  0  0  0  0  0  0  0  0  0  0  0
  -13.2450    2.1384   12.8697 C   0  0  0  0  0  0  0  0  0  0  0  0
  -12.2700    2.7973   12.0776 C   0  0  0  0  0  0  0  0  0  0  0  0
  -11.5837    3.9067   12.2516 N   0  0  0  0  0  0  0  0  0  0  0  0
  -10.8143    4.1099   11.1307 N   0  0  0  0  0  0  0  0  0  0  0  0
  -11.0513    3.1171   10.3038 C   0  0  0  0  0  0  0  0  0  0  0  0
  -11.9471    2.2356   10.8500 N   0  0  0  0  0  0  0  0  0  0  0  0
  -13.0879    0.0150    8.1122 C   0  0  0  0  0  0  0  0  0  0  0  0
  -12.5803    0.2547    6.6751 C   0  0  0  0  0  0  0  0  0  0  0  0
  -11.1695    0.0558    6.4788 O   0  0  0  0  0  0  0  0  0  0  0  0
   -8.2958    0.0234    6.6644 C   0  0  0  0  0  0  0  0  0  0  0  0
   -6.9923   -0.2984    6.3273 C   0  0  0  0  0  0  0  0  0  0  0  0
   -6.1687    0.5839    5.6519 O   0  0  0  0  0  0  0  0  0  0  0  0
   -5.1479   -0.2542    5.0408 C   0  0  1  0  0  0  0  0  0  0  0  0
   -4.0414    0.4991    4.8075 F   0  0  0  0  0  0  0  0  0  0  0  0
  1  2  2  0
  2  3  2  0
  2  4  1  0
  4  5  2  0
  5  6  1  0
  6  7  2  0
  8  7  1  6
  8  9  1  0
  9 10  1  0
 10 11  1  0
 11 12  2  0
 12 13  1  0
 13 14  2  0
 14 15  1  0
 15 16  2  0
 16 17  1  0
 17 18  2  0
 18 19  1  0
 10 20  1  0
 20 21  1  0
 21 22  1  0
  7 23  1  0
 23 24  2  0
 24 25  1  0
 25 26  1  0
 26 27  1  1
 26  2  1  0
 24  4  1  0
 22  8  1  0
 19 11  1  0
 19 15  1  0
M  END
>  <tags>  (111) 
{'openbind_d68ev3c_c1_fragmenstein', 'fragmenstein_placed'}

>  <fragmenstein_mode>  (111) 
expansion

>  <smiles>  (111) 
C4103-P143

>  <alias>  (111) 
O=S1(=O)c2ccc([C@H]3CN(c4cccc5nncn45)CCO3)cc2O[C@H]1F

>  <fragmenstein_runtime>  (111) 
7.848251

>  <inchikey>  (111) 
YTUMQXHFIOZXPN-UHFFFAOYSA-N

>  <HIPPO Compound ID>  (111) 
4103

>  <scratch_subdir>  (111) 
/opt/xchem-fragalysis-2/maxwin/BulkDock/SCRATCH/505735/C4103-P143

>  <fragmenstein_outcome>  (111) 
acceptable

>  <fragmenstein_error>  (111) 


>  <ref_pdb>  (111) 
135

>  <HIPPO Pose ID>  (111) 
1753

>  <Energy>  (111) 
240.056522

$$$$
C[C@@H]1C(=O)N([C@@H]2CCC[C@@H]3N(Br)NCN32)S(=O)(=O)[C@@H]1c1ccccc1
     RDKit          3D

 25 28  0  0  0  0  0  0  0  0999 V2000
  -11.2935    1.2011    6.1628 C   0  0  0  0  0  0  0  0  0  0  0  0
  -11.7288    0.0312    7.0193 C   0  0  2  0  0  0  0  0  0  0  0  0
  -12.6476    0.5512    8.1315 C   0  0  0  0  0  0  0  0  0  0  0  0
  -13.8043    0.8967    7.9468 O   0  0  0  0  0  0  0  0  0  0  0  0
  -11.9744    0.6587    9.3655 N   0  0  0  0  0  0  0  0  0  0  0  0
  -12.4262    1.1553   10.6635 C   0  0  2  0  0  0  0  0  0  0  0  0
  -13.8124    0.5789   11.0177 C   0  0  0  0  0  0  0  0  0  0  0  0
  -14.2371    0.9853   12.4334 C   0  0  0  0  0  0  0  0  0  0  0  0
  -14.1421    2.5031   12.6164 C   0  0  0  0  0  0  0  0  0  0  0  0
  -12.7585    2.9902   12.1734 C   0  0  2  0  0  0  0  0  0  0  0  0
  -12.4022    4.4128   12.2444 N   0  0  0  0  0  0  0  0  0  0  0  0
  -13.7904    5.6486   12.0851 Br  0  0  0  0  0  0  0  0  0  0  0  0
  -11.4496    4.6210   11.1430 N   0  0  0  0  0  0  0  0  0  0  0  0
  -11.2418    3.3015   10.5444 C   0  0  0  0  0  0  0  0  0  0  0  0
  -12.4889    2.6057   10.7810 N   0  0  0  0  0  0  0  0  0  0  0  0
  -10.4137    0.0391    9.3242 S   0  0  0  0  0  0  0  0  0  0  0  0
   -9.5208    1.1759    9.2597 O   0  0  0  0  0  0  0  0  0  0  0  0
  -10.3315   -0.9467   10.3745 O   0  0  0  0  0  0  0  0  0  0  0  0
  -10.6078   -0.7453    7.7289 C   0  0  2  0  0  0  0  0  0  0  0  0
   -9.2347   -0.9990    7.1387 C   0  0  0  0  0  0  0  0  0  0  0  0
   -8.3447    0.0230    6.7695 C   0  0  0  0  0  0  0  0  0  0  0  0
   -7.0437   -0.2663    6.3472 C   0  0  0  0  0  0  0  0  0  0  0  0
   -6.6081   -1.5851    6.2761 C   0  0  0  0  0  0  0  0  0  0  0  0
   -7.4757   -2.6155    6.6214 C   0  0  0  0  0  0  0  0  0  0  0  0
   -8.7727   -2.3246    7.0521 C   0  0  0  0  0  0  0  0  0  0  0  0
  2  1  1  1
  2  3  1  0
  3  4  2  0
  3  5  1  0
  6  5  1  6
  6  7  1  0
  7  8  1  0
  8  9  1  0
 10  9  1  6
 10 11  1  0
 11 12  1  0
 11 13  1  0
 13 14  1  0
 14 15  1  0
  5 16  1  0
 16 17  2  0
 16 18  2  0
 16 19  1  0
 19 20  1  6
 20 21  2  0
 21 22  1  0
 22 23  2  0
 23 24  1  0
 24 25  2  0
 19  2  1  0
 25 20  1  0
 15  6  1  0
 15 10  1  0
M  END
>  <tags>  (112) 
{'openbind_d68ev3c_c1_fragmenstein', 'fragmenstein_placed'}

>  <fragmenstein_mode>  (112) 
expansion

>  <smiles>  (112) 
C4112-P143

>  <alias>  (112) 
C[C@@H]1C(=O)N([C@@H]2CCC[C@@H]3N(Br)NCN32)S(=O)(=O)[C@@H]1c1ccccc1

>  <fragmenstein_runtime>  (112) 
1.906055

>  <inchikey>  (112) 
IUYPQQXTGKMMMW-UHFFFAOYSA-N

>  <HIPPO Compound ID>  (112) 
4112

>  <scratch_subdir>  (112) 
/opt/xchem-fragalysis-2/maxwin/BulkDock/SCRATCH/505735/C4112-P143

>  <fragmenstein_outcome>  (112) 
acceptable

>  <fragmenstein_error>  (112) 


>  <ref_pdb>  (112) 
135

>  <HIPPO Pose ID>  (112) 
1760

>  <Energy>  (112) 
-102.21652

$$$$
O=S1(=O)[C@H](c2ccccc2)CCN1c1cccc2nncn12
     RDKit          3D

 22 25  0  0  0  0  0  0  0  0999 V2000
  -10.4269    1.8089    7.5484 O   0  0  0  0  0  0  0  0  0  0  0  0
  -10.5051    0.8848    8.6594 S   0  0  0  0  0  0  0  0  0  0  0  0
   -9.7750    1.0713    9.8908 O   0  0  0  0  0  0  0  0  0  0  0  0
  -10.3035   -0.7772    8.0786 C   0  0  2  0  0  0  0  0  0  0  0  0
   -8.9956   -1.0507    7.3682 C   0  0  0  0  0  0  0  0  0  0  0  0
   -7.9850   -0.1012    7.1415 C   0  0  0  0  0  0  0  0  0  0  0  0
   -6.7534   -0.4703    6.5921 C   0  0  0  0  0  0  0  0  0  0  0  0
   -6.5027   -1.7974    6.2638 C   0  0  0  0  0  0  0  0  0  0  0  0
   -7.4879   -2.7560    6.4743 C   0  0  0  0  0  0  0  0  0  0  0  0
   -8.7192   -2.3854    7.0198 C   0  0  0  0  0  0  0  0  0  0  0  0
  -11.6219   -0.9978    7.3327 C   0  0  0  0  0  0  0  0  0  0  0  0
  -12.7140   -0.4956    8.2992 C   0  0  0  0  0  0  0  0  0  0  0  0
  -12.1821    0.7089    8.9960 N   0  0  0  0  0  0  0  0  0  0  0  0
  -12.6382    1.2639   10.2446 C   0  0  0  0  0  0  0  0  0  0  0  0
  -13.5183    0.5365   10.9645 C   0  0  0  0  0  0  0  0  0  0  0  0
  -13.9484    1.0140   12.2746 C   0  0  0  0  0  0  0  0  0  0  0  0
  -13.5085    2.1808   12.7792 C   0  0  0  0  0  0  0  0  0  0  0  0
  -12.6483    2.9965   12.0007 C   0  0  0  0  0  0  0  0  0  0  0  0
  -12.1566    4.1989   12.2020 N   0  0  0  0  0  0  0  0  0  0  0  0
  -11.4387    4.5533   11.0893 N   0  0  0  0  0  0  0  0  0  0  0  0
  -11.5149    3.5582   10.2353 C   0  0  0  0  0  0  0  0  0  0  0  0
  -12.2413    2.5196   10.7597 N   0  0  0  0  0  0  0  0  0  0  0  0
  1  2  2  0
  2  3  2  0
  2  4  1  0
  4  5  1  6
  5  6  2  0
  6  7  1  0
  7  8  2  0
  8  9  1  0
  9 10  2  0
  4 11  1  0
 11 12  1  0
 12 13  1  0
 13 14  1  0
 14 15  2  0
 15 16  1  0
 16 17  2  0
 17 18  1  0
 18 19  2  0
 19 20  1  0
 20 21  2  0
 21 22  1  0
 13  2  1  0
 22 14  1  0
 10  5  1  0
 22 18  1  0
M  END
>  <tags>  (113) 
{'openbind_d68ev3c_c1_fragmenstein', 'fragmenstein_placed'}

>  <fragmenstein_mode>  (113) 
expansion

>  <smiles>  (113) 
C117-P143

>  <alias>  (113) 
O=S1(=O)[C@H](c2ccccc2)CCN1c1cccc2nncn12

>  <fragmenstein_runtime>  (113) 
1.678108

>  <inchikey>  (113) 
YWAUSXIRKVBYLY-UHFFFAOYSA-N

>  <HIPPO Compound ID>  (113) 
117

>  <scratch_subdir>  (113) 
/opt/xchem-fragalysis-2/maxwin/BulkDock/SCRATCH/505735/C117-P143

>  <fragmenstein_outcome>  (113) 
acceptable

>  <fragmenstein_error>  (113) 


>  <ref_pdb>  (113) 
135

>  <HIPPO Pose ID>  (113) 
1761

>  <Energy>  (113) 
62.926713

$$$$
Nc1nnc2n1[C@@H](N1CC[C@@H](c3ccccc3)S1(=O)=O)[C@]1(CC2)CNCCN1
     RDKit          3D

 28 32  0  0  0  0  0  0  0  0999 V2000
   -2.0333   -7.9590   34.3845 N   0  0  0  0  0  0  0  0  0  0  0  0
   -1.4911   -7.7232   33.1714 C   0  0  0  0  0  0  0  0  0  0  0  0
   -1.7106   -8.4286   32.0845 N   0  0  0  0  0  0  0  0  0  0  0  0
   -1.0821   -7.8283   31.0363 N   0  0  0  0  0  0  0  0  0  0  0  0
   -0.4814   -6.7605   31.5033 C   0  0  0  0  0  0  0  0  0  0  0  0
   -0.6422   -6.6797   32.8731 N   0  0  0  0  0  0  0  0  0  0  0  0
   -0.3623   -5.4612   33.6528 C   0  0  1  0  0  0  0  0  0  0  0  0
    0.2367   -5.5494   35.0070 N   0  0  0  0  0  0  0  0  0  0  0  0
    0.0430   -4.4111   35.9293 C   0  0  0  0  0  0  0  0  0  0  0  0
    0.3473   -4.9234   37.3335 C   0  0  0  0  0  0  0  0  0  0  0  0
    1.4697   -5.9621   37.1841 C   0  0  1  0  0  0  0  0  0  0  0  0
    1.6786   -6.8918   38.3548 C   0  0  0  0  0  0  0  0  0  0  0  0
    2.9628   -7.3927   38.6148 C   0  0  0  0  0  0  0  0  0  0  0  0
    3.1917   -8.2459   39.6975 C   0  0  0  0  0  0  0  0  0  0  0  0
    2.1421   -8.6172   40.5335 C   0  0  0  0  0  0  0  0  0  0  0  0
    0.8607   -8.1417   40.2840 C   0  0  0  0  0  0  0  0  0  0  0  0
    0.6323   -7.2875   39.2050 C   0  0  0  0  0  0  0  0  0  0  0  0
    0.9480   -6.8842   35.7250 S   0  0  0  0  0  0  0  0  0  0  0  0
    2.0474   -7.2977   34.8804 O   0  0  0  0  0  0  0  0  0  0  0  0
   -0.1190   -7.7843   36.0836 O   0  0  0  0  0  0  0  0  0  0  0  0
    0.3891   -4.3046   32.8018 C   0  0  2  0  0  0  0  0  0  0  0  0
   -0.0784   -4.3567   31.3210 C   0  0  0  0  0  0  0  0  0  0  0  0
    0.1583   -5.7128   30.6906 C   0  0  0  0  0  0  0  0  0  0  0  0
    1.9351   -4.4903   32.9342 C   0  0  0  0  0  0  0  0  0  0  0  0
    2.7425   -3.4724   32.2388 N   0  0  0  0  0  0  0  0  0  0  0  0
    2.3861   -2.1518   32.7847 C   0  0  0  0  0  0  0  0  0  0  0  0
    0.8707   -1.8638   32.7474 C   0  0  0  0  0  0  0  0  0  0  0  0
    0.0396   -2.9376   33.3169 N   0  0  0  0  0  0  0  0  0  0  0  0
  1  2  1  0
  2  3  2  0
  3  4  1  0
  4  5  2  0
  5  6  1  0
  6  7  1  0
  7  8  1  1
  8  9  1  0
  9 10  1  0
 10 11  1  0
 11 12  1  1
 12 13  2  0
 13 14  1  0
 14 15  2  0
 15 16  1  0
 16 17  2  0
 11 18  1  0
 18 19  2  0
 18 20  2  0
  7 21  1  0
 21 22  1  6
 22 23  1  0
 21 24  1  0
 24 25  1  0
 25 26  1  0
 26 27  1  0
 27 28  1  0
  6  2  1  0
 18  8  1  0
 28 21  1  0
 23  5  1  0
 17 12  1  0
M  END
>  <tags>  (114) 
{'openbind_d68ev3c_c1_fragmenstein', 'fragmenstein_placed'}

>  <fragmenstein_mode>  (114) 
expansion

>  <smiles>  (114) 
C4119-P144

>  <alias>  (114) 
Nc1nnc2n1[C@@H](N1CC[C@@H](c3ccccc3)S1(=O)=O)[C@]1(CC2)CNCCN1

>  <fragmenstein_runtime>  (114) 
4.256368

>  <inchikey>  (114) 
MJVQYZUVOMAMAA-UHFFFAOYSA-N

>  <HIPPO Compound ID>  (114) 
4119

>  <scratch_subdir>  (114) 
/opt/xchem-fragalysis-2/maxwin/BulkDock/SCRATCH/505735/C4119-P144

>  <fragmenstein_outcome>  (114) 
acceptable

>  <fragmenstein_error>  (114) 


>  <ref_pdb>  (114) 
135

>  <HIPPO Pose ID>  (114) 
1765

>  <Energy>  (114) 
76.740554

$$$$
O=S(=O)(NCc1cc(N2CC[C@@H](c3ccccc3)S2(=O)=O)n2cnnc2c1)c1ccc(O)cc1
     RDKit          3D

 34 38  0  0  0  0  0  0  0  0999 V2000
    0.1627   -3.1729   28.6093 O   0  0  0  0  0  0  0  0  0  0  0  0
   -0.0229   -2.1017   29.5576 S   0  0  0  0  0  0  0  0  0  0  0  0
    0.9684   -1.7994   30.5691 O   0  0  0  0  0  0  0  0  0  0  0  0
   -1.4619   -2.4525   30.3558 N   0  0  0  0  0  0  0  0  0  0  0  0
   -1.2784   -2.8080   31.7515 C   0  0  0  0  0  0  0  0  0  0  0  0
   -0.6788   -4.1744   31.9737 C   0  0  0  0  0  0  0  0  0  0  0  0
   -0.3183   -4.3943   33.3640 C   0  0  0  0  0  0  0  0  0  0  0  0
   -0.3181   -5.6357   33.8760 C   0  0  0  0  0  0  0  0  0  0  0  0
   -0.0345   -5.6967   35.2735 N   0  0  0  0  0  0  0  0  0  0  0  0
    0.1973   -4.5125   36.1368 C   0  0  0  0  0  0  0  0  0  0  0  0
    0.4726   -5.0394   37.5323 C   0  0  0  0  0  0  0  0  0  0  0  0
    1.4083   -6.2293   37.3275 C   0  0  1  0  0  0  0  0  0  0  0  0
    1.5933   -7.1360   38.5124 C   0  0  0  0  0  0  0  0  0  0  0  0
    2.8529   -7.7050   38.7524 C   0  0  0  0  0  0  0  0  0  0  0  0
    3.0665   -8.5172   39.8671 C   0  0  0  0  0  0  0  0  0  0  0  0
    2.0247   -8.7783   40.7528 C   0  0  0  0  0  0  0  0  0  0  0  0
    0.7663   -8.2346   40.5211 C   0  0  0  0  0  0  0  0  0  0  0  0
    0.5535   -7.4200   39.4104 C   0  0  0  0  0  0  0  0  0  0  0  0
    0.6905   -7.1029   35.9243 S   0  0  0  0  0  0  0  0  0  0  0  0
    1.7196   -7.5456   35.0008 O   0  0  0  0  0  0  0  0  0  0  0  0
   -0.4111   -7.9394   36.3248 O   0  0  0  0  0  0  0  0  0  0  0  0
   -0.6509   -6.6824   33.0036 N   0  0  0  0  0  0  0  0  0  0  0  0
   -1.1377   -7.9444   33.1878 C   0  0  0  0  0  0  0  0  0  0  0  0
   -1.3823   -8.5182   32.0276 N   0  0  0  0  0  0  0  0  0  0  0  0
   -1.0703   -7.6270   31.0363 N   0  0  0  0  0  0  0  0  0  0  0  0
   -0.6847   -6.5140   31.6206 C   0  0  0  0  0  0  0  0  0  0  0  0
   -0.5528   -5.1942   31.0988 C   0  0  0  0  0  0  0  0  0  0  0  0
   -0.4151   -0.6139   28.7120 C   0  0  0  0  0  0  0  0  0  0  0  0
   -1.3613   -0.6318   27.6918 C   0  0  0  0  0  0  0  0  0  0  0  0
   -1.6019    0.5313   26.9594 C   0  0  0  0  0  0  0  0  0  0  0  0
   -0.9178    1.6948   27.2709 C   0  0  0  0  0  0  0  0  0  0  0  0
   -1.1524    2.8530   26.5973 O   0  0  0  0  0  0  0  0  0  0  0  0
    0.0406    1.7086   28.2743 C   0  0  0  0  0  0  0  0  0  0  0  0
    0.2863    0.5547   29.0133 C   0  0  0  0  0  0  0  0  0  0  0  0
  1  2  2  0
  2  3  2  0
  2  4  1  0
  4  5  1  0
  5  6  1  0
  6  7  1  0
  7  8  2  0
  8  9  1  0
  9 10  1  0
 10 11  1  0
 11 12  1  0
 12 13  1  1
 13 14  2  0
 14 15  1  0
 15 16  2  0
 16 17  1  0
 17 18  2  0
 12 19  1  0
 19 20  2  0
 19 21  2  0
  8 22  1  0
 22 23  1  0
 23 24  2  0
 24 25  1  0
 25 26  2  0
 26 27  1  0
  2 28  1  0
 28 29  2  0
 29 30  1  0
 30 31  2  0
 31 32  1  0
 31 33  1  0
 33 34  2  0
 27  6  2  0
 34 28  1  0
 19  9  1  0
 26 22  1  0
 18 13  1  0
M  END
>  <tags>  (115) 
{'openbind_d68ev3c_c1_fragmenstein', 'fragmenstein_placed'}

>  <fragmenstein_mode>  (115) 
expansion

>  <smiles>  (115) 
C4129-P144

>  <alias>  (115) 
O=S(=O)(NCc1cc(N2CC[C@@H](c3ccccc3)S2(=O)=O)n2cnnc2c1)c1ccc(O)cc1

>  <fragmenstein_runtime>  (115) 
4.408434

>  <inchikey>  (115) 
ILCMXEZHVXJEPI-UHFFFAOYSA-N

>  <HIPPO Compound ID>  (115) 
4129

>  <scratch_subdir>  (115) 
/opt/xchem-fragalysis-2/maxwin/BulkDock/SCRATCH/505735/C4129-P144

>  <fragmenstein_outcome>  (115) 
acceptable

>  <fragmenstein_error>  (115) 


>  <ref_pdb>  (115) 
135

>  <HIPPO Pose ID>  (115) 
1767

>  <Energy>  (115) 
15.403774

$$$$
O=S1(=O)[C@H](c2ccccc2)C2(CCNCC2)CN1c1cccc2nncn12
     RDKit          3D

 27 31  0  0  0  0  0  0  0  0999 V2000
    1.9003   -7.5934   34.6816 O   0  0  0  0  0  0  0  0  0  0  0  0
    0.9267   -7.0460   35.6088 S   0  0  0  0  0  0  0  0  0  0  0  0
   -0.2042   -7.8188   36.0622 O   0  0  0  0  0  0  0  0  0  0  0  0
    1.7618   -6.1986   36.9655 C   0  0  2  0  0  0  0  0  0  0  0  0
    2.0556   -7.1466   38.1044 C   0  0  0  0  0  0  0  0  0  0  0  0
    3.3947   -7.4815   38.3774 C   0  0  0  0  0  0  0  0  0  0  0  0
    3.7257   -8.3768   39.3980 C   0  0  0  0  0  0  0  0  0  0  0  0
    2.7257   -8.9532   40.1714 C   0  0  0  0  0  0  0  0  0  0  0  0
    1.3975   -8.6349   39.9217 C   0  0  0  0  0  0  0  0  0  0  0  0
    1.0690   -7.7450   38.8969 C   0  0  0  0  0  0  0  0  0  0  0  0
    1.0018   -4.8554   37.1563 C   0  0  0  0  0  0  0  0  0  0  0  0
    1.9256   -3.8247   37.8479 C   0  0  0  0  0  0  0  0  0  0  0  0
    1.1343   -2.6704   38.4579 C   0  0  0  0  0  0  0  0  0  0  0  0
    0.2422   -3.1261   39.5153 N   0  0  0  0  0  0  0  0  0  0  0  0
   -0.2406   -4.4979   39.3631 C   0  0  0  0  0  0  0  0  0  0  0  0
   -0.3541   -4.9166   37.8973 C   0  0  0  0  0  0  0  0  0  0  0  0
    0.7516   -4.4118   35.6891 C   0  0  0  0  0  0  0  0  0  0  0  0
    0.2884   -5.5970   34.9139 N   0  0  0  0  0  0  0  0  0  0  0  0
    0.1479   -5.5902   33.4761 C   0  0  0  0  0  0  0  0  0  0  0  0
    0.6538   -4.5215   32.8212 C   0  0  0  0  0  0  0  0  0  0  0  0
    0.5884   -4.4512   31.3712 C   0  0  0  0  0  0  0  0  0  0  0  0
    0.0298   -5.4351   30.6509 C   0  0  0  0  0  0  0  0  0  0  0  0
   -0.5375   -6.5498   31.3165 C   0  0  0  0  0  0  0  0  0  0  0  0
   -1.1656   -7.6053   30.8530 N   0  0  0  0  0  0  0  0  0  0  0  0
   -1.5902   -8.3338   31.9301 N   0  0  0  0  0  0  0  0  0  0  0  0
   -1.2003   -7.7136   33.0242 C   0  0  0  0  0  0  0  0  0  0  0  0
   -0.4851   -6.5898   32.7090 N   0  0  0  0  0  0  0  0  0  0  0  0
  1  2  2  0
  2  3  2  0
  2  4  1  0
  4  5  1  1
  5  6  2  0
  6  7  1  0
  7  8  2  0
  8  9  1  0
  9 10  2  0
  4 11  1  0
 11 12  1  0
 12 13  1  0
 13 14  1  0
 14 15  1  0
 15 16  1  0
 11 17  1  0
 17 18  1  0
 18 19  1  0
 19 20  2  0
 20 21  1  0
 21 22  2  0
 22 23  1  0
 23 24  2  0
 24 25  1  0
 25 26  2  0
 26 27  1  0
 18  2  1  0
 27 19  1  0
 10  5  1  0
 16 11  1  0
 27 23  1  0
M  END
>  <tags>  (116) 
{'openbind_d68ev3c_c1_fragmenstein', 'fragmenstein_placed'}

>  <fragmenstein_mode>  (116) 
expansion

>  <smiles>  (116) 
C4125-P145

>  <alias>  (116) 
O=S1(=O)[C@H](c2ccccc2)C2(CCNCC2)CN1c1cccc2nncn12

>  <fragmenstein_runtime>  (116) 
3.974728

>  <inchikey>  (116) 
SXDMHWVCSAQMOE-UHFFFAOYSA-N

>  <HIPPO Compound ID>  (116) 
4125

>  <scratch_subdir>  (116) 
/opt/xchem-fragalysis-2/maxwin/BulkDock/SCRATCH/505735/C4125-P145

>  <fragmenstein_outcome>  (116) 
acceptable

>  <fragmenstein_error>  (116) 


>  <ref_pdb>  (116) 
135

>  <HIPPO Pose ID>  (116) 
1781

>  <Energy>  (116) 
72.816186

$$$$
O=C(Cc1ccn[nH]1)Nc1ccc(F)c2c1CCN(C[C@@H](O)C(=O)O)C2
     RDKit          3D

 26 28  0  0  0  0  0  0  0  0999 V2000
   17.8263   -2.3311   18.5948 O   0  0  0  0  0  0  0  0  0  0  0  0
   17.7231   -1.7749   17.5688 C   0  0  0  0  0  0  0  0  0  0  0  0
   18.8239   -0.8557   17.0267 C   0  0  0  0  0  0  0  0  0  0  0  0
   19.2061   -1.1787   15.6223 C   0  0  0  0  0  0  0  0  0  0  0  0
   19.4544   -2.3725   14.9770 C   0  0  0  0  0  0  0  0  0  0  0  0
   19.7544   -2.0101   13.6522 C   0  0  0  0  0  0  0  0  0  0  0  0
   19.6990   -0.6900   13.4665 N   0  0  0  0  0  0  0  0  0  0  0  0
   19.4199   -0.2040   14.6840 N   0  0  0  0  0  0  0  0  0  0  0  0
   16.5189   -1.7000   16.5742 N   0  0  0  0  0  0  0  0  0  0  0  0
   15.2832   -2.3477   16.5980 C   0  0  0  0  0  0  0  0  0  0  0  0
   14.9570   -3.2012   17.6571 C   0  0  0  0  0  0  0  0  0  0  0  0
   13.7164   -3.8316   17.6984 C   0  0  0  0  0  0  0  0  0  0  0  0
   12.7975   -3.5898   16.6906 C   0  0  0  0  0  0  0  0  0  0  0  0
   11.6248   -4.2260   16.7213 F   0  0  0  0  0  0  0  0  0  0  0  0
   13.0759   -2.7242   15.6359 C   0  0  0  0  0  0  0  0  0  0  0  0
   14.3540   -2.1276   15.5593 C   0  0  0  0  0  0  0  0  0  0  0  0
   14.6725   -1.2391   14.3752 C   0  0  0  0  0  0  0  0  0  0  0  0
   13.6077   -1.2978   13.2683 C   0  0  0  0  0  0  0  0  0  0  0  0
   12.2217   -1.2916   13.7712 N   0  0  0  0  0  0  0  0  0  0  0  0
   11.9286   -0.0479   14.5238 C   0  0  0  0  0  0  0  0  0  0  0  0
   10.4408    0.2388   14.8165 C   0  0  1  0  0  0  0  0  0  0  0  0
    9.9326   -0.5263   15.9306 O   0  0  0  0  0  0  0  0  0  0  0  0
   10.2892    1.7374   15.1101 C   0  0  0  0  0  0  0  0  0  0  0  0
   10.6454    2.6717   14.4110 O   0  0  0  0  0  0  0  0  0  0  0  0
    9.5995    1.9636   16.2555 O   0  0  0  0  0  0  0  0  0  0  0  0
   12.0196   -2.5084   14.5750 C   0  0  0  0  0  0  0  0  0  0  0  0
  1  2  2  0
  2  3  1  0
  3  4  1  0
  4  5  2  0
  5  6  1  0
  6  7  2  0
  7  8  1  0
  2  9  1  0
  9 10  1  0
 10 11  2  0
 11 12  1  0
 12 13  2  0
 13 14  1  0
 13 15  1  0
 15 16  2  0
 16 17  1  0
 17 18  1  0
 18 19  1  0
 19 20  1  0
 20 21  1  0
 21 22  1  1
 21 23  1  0
 23 24  2  0
 23 25  1  0
 19 26  1  0
  8  4  1  0
 16 10  1  0
 26 15  1  0
M  END
>  <tags>  (117) 
{'openbind_d68ev3c_c1_fragmenstein', 'fragmenstein_placed'}

>  <fragmenstein_mode>  (117) 
expansion

>  <smiles>  (117) 
C4172-P146

>  <alias>  (117) 
O=C(Cc1ccn[nH]1)Nc1ccc(F)c2c1CCN(C[C@@H](O)C(=O)O)C2

>  <fragmenstein_runtime>  (117) 
1.568376

>  <inchikey>  (117) 
ITBGIXOVWKMXRA-UHFFFAOYSA-N

>  <HIPPO Compound ID>  (117) 
4172

>  <scratch_subdir>  (117) 
/opt/xchem-fragalysis-2/maxwin/BulkDock/SCRATCH/505735/C4172-P146

>  <fragmenstein_outcome>  (117) 
acceptable

>  <fragmenstein_error>  (117) 


>  <ref_pdb>  (117) 
135

>  <HIPPO Pose ID>  (117) 
1796

>  <Energy>  (117) 
93.888968

$$$$
c1ccc(-c2nnc(CNCc3cc(SCc4ccncc4)cc4nncn34)[nH]2)cc1
     RDKit          3D

 31 35  0  0  0  0  0  0  0  0999 V2000
   -1.4208    3.7430   26.6340 C   0  0  0  0  0  0  0  0  0  0  0  0
   -2.2135    2.6724   26.2312 C   0  0  0  0  0  0  0  0  0  0  0  0
   -2.0299    1.4182   26.8142 C   0  0  0  0  0  0  0  0  0  0  0  0
   -1.0712    1.2227   27.8107 C   0  0  0  0  0  0  0  0  0  0  0  0
   -0.9553   -0.0655   28.4726 C   0  0  0  0  0  0  0  0  0  0  0  0
   -1.7901   -0.5929   29.3436 N   0  0  0  0  0  0  0  0  0  0  0  0
   -1.2648   -1.7800   29.7877 N   0  0  0  0  0  0  0  0  0  0  0  0
   -0.1155   -1.9697   29.1737 C   0  0  0  0  0  0  0  0  0  0  0  0
    0.8628   -3.0681   29.4158 C   0  0  0  0  0  0  0  0  0  0  0  0
    0.3822   -3.9406   30.4926 N   0  0  0  0  0  0  0  0  0  0  0  0
    1.4294   -4.7526   31.0825 C   0  0  0  0  0  0  0  0  0  0  0  0
    0.8641   -5.6402   32.1584 C   0  0  0  0  0  0  0  0  0  0  0  0
    1.3047   -5.6189   33.4354 C   0  0  0  0  0  0  0  0  0  0  0  0
    0.7568   -6.5596   34.4090 C   0  0  0  0  0  0  0  0  0  0  0  0
    1.7378   -6.9808   35.7652 S   0  0  0  0  0  0  0  0  0  0  0  0
    1.0478   -5.9941   37.1187 C   0  0  0  0  0  0  0  0  0  0  0  0
    1.2752   -6.6572   38.4572 C   0  0  0  0  0  0  0  0  0  0  0  0
    2.5255   -7.1587   38.8444 C   0  0  0  0  0  0  0  0  0  0  0  0
    2.6475   -7.7877   40.0741 C   0  0  0  0  0  0  0  0  0  0  0  0
    1.6333   -7.9198   40.9506 N   0  0  0  0  0  0  0  0  0  0  0  0
    0.4410   -7.4163   40.5749 C   0  0  0  0  0  0  0  0  0  0  0  0
    0.2204   -6.7720   39.3664 C   0  0  0  0  0  0  0  0  0  0  0  0
   -0.3150   -7.3227   34.1154 C   0  0  0  0  0  0  0  0  0  0  0  0
   -0.7826   -7.3638   32.7769 C   0  0  0  0  0  0  0  0  0  0  0  0
   -1.6465   -8.1471   32.1694 N   0  0  0  0  0  0  0  0  0  0  0  0
   -1.5764   -7.8875   30.8243 N   0  0  0  0  0  0  0  0  0  0  0  0
   -0.6906   -6.9355   30.6496 C   0  0  0  0  0  0  0  0  0  0  0  0
   -0.1443   -6.5623   31.8439 N   0  0  0  0  0  0  0  0  0  0  0  0
    0.0945   -0.9287   28.3091 N   0  0  0  0  0  0  0  0  0  0  0  0
   -0.2692    2.3009   28.1998 C   0  0  0  0  0  0  0  0  0  0  0  0
   -0.4454    3.5573   27.6133 C   0  0  0  0  0  0  0  0  0  0  0  0
  1  2  2  0
  2  3  1  0
  3  4  2  0
  4  5  1  0
  5  6  2  0
  6  7  1  0
  7  8  2  0
  8  9  1  0
  9 10  1  0
 10 11  1  0
 11 12  1  0
 12 13  2  0
 13 14  1  0
 14 15  1  0
 15 16  1  0
 16 17  1  0
 17 18  2  0
 18 19  1  0
 19 20  2  0
 20 21  1  0
 21 22  2  0
 14 23  2  0
 23 24  1  0
 24 25  2  0
 25 26  1  0
 26 27  2  0
 27 28  1  0
  8 29  1  0
  4 30  1  0
 30 31  2  0
 31  1  1  0
 29  5  1  0
 28 12  1  0
 22 17  1  0
 28 24  1  0
M  END
>  <tags>  (118) 
{'openbind_d68ev3c_c1_fragmenstein', 'fragmenstein_placed'}

>  <fragmenstein_mode>  (118) 
expansion

>  <smiles>  (118) 
C4204-P147

>  <alias>  (118) 
c1ccc(-c2nnc(CNCc3cc(SCc4ccncc4)cc4nncn34)[nH]2)cc1

>  <fragmenstein_runtime>  (118) 
11.013085

>  <inchikey>  (118) 
RLJUVMUBUPLMSW-UHFFFAOYSA-N

>  <HIPPO Compound ID>  (118) 
4204

>  <scratch_subdir>  (118) 
/opt/xchem-fragalysis-2/maxwin/BulkDock/SCRATCH/505735/C4204-P147

>  <fragmenstein_outcome>  (118) 
acceptable

>  <fragmenstein_error>  (118) 


>  <ref_pdb>  (118) 
135

>  <HIPPO Pose ID>  (118) 
1807

>  <Energy>  (118) 
58.79066

$$$$
c1ccc(-c2nnc(CNCc3cc(Cc4ccncc4)cc4nncn34)[nH]2)cc1
     RDKit          3D

 30 34  0  0  0  0  0  0  0  0999 V2000
   -1.3018    3.6196   26.7161 C   0  0  0  0  0  0  0  0  0  0  0  0
   -2.1429    2.5771   26.3425 C   0  0  0  0  0  0  0  0  0  0  0  0
   -1.9552    1.3084   26.8930 C   0  0  0  0  0  0  0  0  0  0  0  0
   -0.9450    1.0640   27.8281 C   0  0  0  0  0  0  0  0  0  0  0  0
   -0.8511   -0.2415   28.4689 C   0  0  0  0  0  0  0  0  0  0  0  0
   -1.8123   -0.8749   29.1092 N   0  0  0  0  0  0  0  0  0  0  0  0
   -1.2972   -2.0238   29.6532 N   0  0  0  0  0  0  0  0  0  0  0  0
   -0.0256   -2.0966   29.3204 C   0  0  0  0  0  0  0  0  0  0  0  0
    0.9642   -3.1188   29.7816 C   0  0  0  0  0  0  0  0  0  0  0  0
    0.3632   -3.9829   30.8105 N   0  0  0  0  0  0  0  0  0  0  0  0
    1.3339   -4.6376   31.6769 C   0  0  0  0  0  0  0  0  0  0  0  0
    0.6622   -5.5321   32.7013 C   0  0  0  0  0  0  0  0  0  0  0  0
    0.8225   -5.3984   34.0443 C   0  0  0  0  0  0  0  0  0  0  0  0
    0.1324   -6.3022   34.9912 C   0  0  0  0  0  0  0  0  0  0  0  0
    0.2242   -6.0430   36.5023 C   0  0  0  0  0  0  0  0  0  0  0  0
    1.2490   -6.8479   37.2902 C   0  0  0  0  0  0  0  0  0  0  0  0
    0.8897   -7.6300   38.4001 C   0  0  0  0  0  0  0  0  0  0  0  0
    1.8722   -8.3224   39.1029 C   0  0  0  0  0  0  0  0  0  0  0  0
    3.1846   -8.2628   38.7995 N   0  0  0  0  0  0  0  0  0  0  0  0
    3.5198   -7.4867   37.7511 C   0  0  0  0  0  0  0  0  0  0  0  0
    2.6075   -6.7747   36.9807 C   0  0  0  0  0  0  0  0  0  0  0  0
   -0.6841   -7.2630   34.5004 C   0  0  0  0  0  0  0  0  0  0  0  0
   -0.8520   -7.4290   33.0978 C   0  0  0  0  0  0  0  0  0  0  0  0
   -1.5584   -8.2784   32.3822 N   0  0  0  0  0  0  0  0  0  0  0  0
   -1.3416   -8.0077   31.0530 N   0  0  0  0  0  0  0  0  0  0  0  0
   -0.5190   -6.9862   30.9922 C   0  0  0  0  0  0  0  0  0  0  0  0
   -0.1731   -6.5683   32.2523 N   0  0  0  0  0  0  0  0  0  0  0  0
    0.2813   -1.0130   28.5359 N   0  0  0  0  0  0  0  0  0  0  0  0
   -0.0937    2.1160   28.1840 C   0  0  0  0  0  0  0  0  0  0  0  0
   -0.2739    3.3887   27.6303 C   0  0  0  0  0  0  0  0  0  0  0  0
  1  2  2  0
  2  3  1  0
  3  4  2  0
  4  5  1  0
  5  6  2  0
  6  7  1  0
  7  8  2  0
  8  9  1  0
  9 10  1  0
 10 11  1  0
 11 12  1  0
 12 13  2  0
 13 14  1  0
 14 15  1  0
 15 16  1  0
 16 17  2  0
 17 18  1  0
 18 19  2  0
 19 20  1  0
 20 21  2  0
 14 22  2  0
 22 23  1  0
 23 24  2  0
 24 25  1  0
 25 26  2  0
 26 27  1  0
  8 28  1  0
  4 29  1  0
 29 30  2  0
 30  1  1  0
 28  5  1  0
 27 12  1  0
 21 16  1  0
 27 23  1  0
M  END
>  <tags>  (119) 
{'openbind_d68ev3c_c1_fragmenstein', 'fragmenstein_placed'}

>  <fragmenstein_mode>  (119) 
expansion

>  <smiles>  (119) 
C4205-P147

>  <alias>  (119) 
c1ccc(-c2nnc(CNCc3cc(Cc4ccncc4)cc4nncn34)[nH]2)cc1

>  <fragmenstein_runtime>  (119) 
9.485178

>  <inchikey>  (119) 
WQVHMKUZTQFVHV-UHFFFAOYSA-N

>  <HIPPO Compound ID>  (119) 
4205

>  <scratch_subdir>  (119) 
/opt/xchem-fragalysis-2/maxwin/BulkDock/SCRATCH/505735/C4205-P147

>  <fragmenstein_outcome>  (119) 
acceptable

>  <fragmenstein_error>  (119) 


>  <ref_pdb>  (119) 
135

>  <HIPPO Pose ID>  (119) 
1808

>  <Energy>  (119) 
64.915598

$$$$
O=S(=O)(c1cc(CNCc2nnc(-c3ccccc3)[nH]2)n2cnnc2c1)N1CCNCC1
     RDKit          3D

 32 36  0  0  0  0  0  0  0  0999 V2000
    1.0728   -4.8347   37.0300 O   0  0  0  0  0  0  0  0  0  0  0  0
   -0.2079   -5.4653   36.7660 S   0  0  0  0  0  0  0  0  0  0  0  0
   -1.4147   -4.6628   36.7258 O   0  0  0  0  0  0  0  0  0  0  0  0
   -0.0675   -6.1466   35.1340 C   0  0  0  0  0  0  0  0  0  0  0  0
    0.6824   -5.3455   34.1262 C   0  0  0  0  0  0  0  0  0  0  0  0
    0.5534   -5.5730   32.7963 C   0  0  0  0  0  0  0  0  0  0  0  0
    1.2489   -4.7441   31.7293 C   0  0  0  0  0  0  0  0  0  0  0  0
    0.2974   -4.0879   30.8409 N   0  0  0  0  0  0  0  0  0  0  0  0
    0.9260   -3.2201   29.8263 C   0  0  0  0  0  0  0  0  0  0  0  0
   -0.0447   -2.1853   29.3476 C   0  0  0  0  0  0  0  0  0  0  0  0
   -1.3282   -2.1191   29.6320 N   0  0  0  0  0  0  0  0  0  0  0  0
   -1.8251   -0.9640   29.0841 N   0  0  0  0  0  0  0  0  0  0  0  0
   -0.8426   -0.3179   28.4904 C   0  0  0  0  0  0  0  0  0  0  0  0
   -0.9240    0.9944   27.8588 C   0  0  0  0  0  0  0  0  0  0  0  0
   -1.9272    1.2496   26.9183 C   0  0  0  0  0  0  0  0  0  0  0  0
   -2.1123    2.5240   26.3795 C   0  0  0  0  0  0  0  0  0  0  0  0
   -1.2738    3.5625   26.7689 C   0  0  0  0  0  0  0  0  0  0  0  0
   -0.2515    3.3213   27.6869 C   0  0  0  0  0  0  0  0  0  0  0  0
   -0.0750    2.0428   28.2298 C   0  0  0  0  0  0  0  0  0  0  0  0
    0.2904   -1.0856   28.5956 N   0  0  0  0  0  0  0  0  0  0  0  0
   -0.2779   -6.6342   32.4185 N   0  0  0  0  0  0  0  0  0  0  0  0
   -0.6089   -7.1309   31.1844 C   0  0  0  0  0  0  0  0  0  0  0  0
   -1.4295   -8.1467   31.3053 N   0  0  0  0  0  0  0  0  0  0  0  0
   -1.6674   -8.3235   32.6484 N   0  0  0  0  0  0  0  0  0  0  0  0
   -0.9710   -7.4335   33.3233 C   0  0  0  0  0  0  0  0  0  0  0  0
   -0.8669   -7.1516   34.7260 C   0  0  0  0  0  0  0  0  0  0  0  0
   -0.4476   -6.4868   38.1379 N   0  0  0  0  0  0  0  0  0  0  0  0
   -0.6889   -5.5677   39.3569 C   0  0  0  0  0  0  0  0  0  0  0  0
   -0.7767   -6.2892   40.7113 C   0  0  0  0  0  0  0  0  0  0  0  0
    0.3207   -7.2309   40.9499 N   0  0  0  0  0  0  0  0  0  0  0  0
    0.4151   -8.1588   39.8082 C   0  0  0  0  0  0  0  0  0  0  0  0
    0.6528   -7.4518   38.4504 C   0  0  0  0  0  0  0  0  0  0  0  0
  1  2  2  0
  2  3  2  0
  2  4  1  0
  4  5  1  0
  5  6  2  0
  6  7  1  0
  7  8  1  0
  8  9  1  0
  9 10  1  0
 10 11  2  0
 11 12  1  0
 12 13  2  0
 13 14  1  0
 14 15  2  0
 15 16  1  0
 16 17  2  0
 17 18  1  0
 18 19  2  0
 13 20  1  0
  6 21  1  0
 21 22  1  0
 22 23  2  0
 23 24  1  0
 24 25  2  0
 25 26  1  0
  2 27  1  0
 27 28  1  0
 28 29  1  0
 29 30  1  0
 30 31  1  0
 31 32  1  0
 26  4  2  0
 32 27  1  0
 20 10  1  0
 25 21  1  0
 19 14  1  0
M  END
>  <tags>  (120) 
{'openbind_d68ev3c_c1_fragmenstein', 'fragmenstein_placed'}

>  <fragmenstein_mode>  (120) 
expansion

>  <smiles>  (120) 
C4208-P147

>  <alias>  (120) 
O=S(=O)(c1cc(CNCc2nnc(-c3ccccc3)[nH]2)n2cnnc2c1)N1CCNCC1

>  <fragmenstein_runtime>  (120) 
5.439026

>  <inchikey>  (120) 
WCQMFAYQSLVMDE-UHFFFAOYSA-N

>  <HIPPO Compound ID>  (120) 
4208

>  <scratch_subdir>  (120) 
/opt/xchem-fragalysis-2/maxwin/BulkDock/SCRATCH/505735/C4208-P147

>  <fragmenstein_outcome>  (120) 
acceptable

>  <fragmenstein_error>  (120) 


>  <ref_pdb>  (120) 
135

>  <HIPPO Pose ID>  (120) 
1811

>  <Energy>  (120) 
65.189144

$$$$
Cc1cc(CN2Cc3nc(-c4ccccc4)nn3S(=O)(=O)N2)n2cnnc2c1
     RDKit          3D

 28 32  0  0  0  0  0  0  0  0999 V2000
    0.4661   -5.6743   36.0268 C   0  0  0  0  0  0  0  0  0  0  0  0
    0.2617   -6.0809   34.5975 C   0  0  0  0  0  0  0  0  0  0  0  0
    0.9993   -5.3073   33.6012 C   0  0  0  0  0  0  0  0  0  0  0  0
    0.7820   -5.5116   32.2838 C   0  0  0  0  0  0  0  0  0  0  0  0
    1.4305   -4.6552   31.2214 C   0  0  0  0  0  0  0  0  0  0  0  0
    0.4926   -3.6351   30.7169 N   0  0  0  0  0  0  0  0  0  0  0  0
    1.0866   -2.8103   29.6397 C   0  0  0  0  0  0  0  0  0  0  0  0
    0.1555   -1.7434   29.1565 C   0  0  0  0  0  0  0  0  0  0  0  0
    0.4405   -0.7249   28.3682 N   0  0  0  0  0  0  0  0  0  0  0  0
   -0.7625   -0.0507   28.2521 C   0  0  0  0  0  0  0  0  0  0  0  0
   -0.8899    1.2388   27.5883 C   0  0  0  0  0  0  0  0  0  0  0  0
   -2.0499    1.5676   26.8786 C   0  0  0  0  0  0  0  0  0  0  0  0
   -2.2199    2.8343   26.3207 C   0  0  0  0  0  0  0  0  0  0  0  0
   -1.2217    3.7909   26.4700 C   0  0  0  0  0  0  0  0  0  0  0  0
   -0.0517    3.4742   27.1605 C   0  0  0  0  0  0  0  0  0  0  0  0
    0.1179    2.2008   27.7125 C   0  0  0  0  0  0  0  0  0  0  0  0
   -1.7644   -0.6008   28.9502 N   0  0  0  0  0  0  0  0  0  0  0  0
   -1.1374   -1.6026   29.5995 N   0  0  0  0  0  0  0  0  0  0  0  0
   -1.4683   -2.0976   31.2326 S   0  0  0  0  0  0  0  0  0  0  0  0
   -1.5911   -0.8726   31.9981 O   0  0  0  0  0  0  0  0  0  0  0  0
   -2.5083   -3.1025   31.1750 O   0  0  0  0  0  0  0  0  0  0  0  0
   -0.0182   -2.8480   31.7841 N   0  0  0  0  0  0  0  0  0  0  0  0
   -0.1151   -6.5248   31.9249 N   0  0  0  0  0  0  0  0  0  0  0  0
   -0.5326   -6.9768   30.7042 C   0  0  0  0  0  0  0  0  0  0  0  0
   -1.3581   -7.9871   30.8417 N   0  0  0  0  0  0  0  0  0  0  0  0
   -1.5246   -8.2008   32.1888 N   0  0  0  0  0  0  0  0  0  0  0  0
   -0.7873   -7.3236   32.8361 C   0  0  0  0  0  0  0  0  0  0  0  0
   -0.5834   -7.0642   34.2183 C   0  0  0  0  0  0  0  0  0  0  0  0
  1  2  1  0
  2  3  1  0
  3  4  2  0
  4  5  1  0
  5  6  1  0
  6  7  1  0
  7  8  1  0
  8  9  2  0
  9 10  1  0
 10 11  1  0
 11 12  2  0
 12 13  1  0
 13 14  2  0
 14 15  1  0
 15 16  2  0
 10 17  2  0
 17 18  1  0
 18 19  1  0
 19 20  2  0
 19 21  2  0
 19 22  1  0
  4 23  1  0
 23 24  1  0
 24 25  2  0
 25 26  1  0
 26 27  2  0
 27 28  1  0
 28  2  2  0
 22  6  1  0
 27 23  1  0
 18  8  1  0
 16 11  1  0
M  END
>  <tags>  (121) 
{'openbind_d68ev3c_c1_fragmenstein', 'fragmenstein_placed'}

>  <fragmenstein_mode>  (121) 
expansion

>  <smiles>  (121) 
C4215-P147

>  <alias>  (121) 
Cc1cc(CN2Cc3nc(-c4ccccc4)nn3S(=O)(=O)N2)n2cnnc2c1

>  <fragmenstein_runtime>  (121) 
2.247726

>  <inchikey>  (121) 
GKEIVHGNIDXPLH-UHFFFAOYSA-N

>  <HIPPO Compound ID>  (121) 
4215

>  <scratch_subdir>  (121) 
/opt/xchem-fragalysis-2/maxwin/BulkDock/SCRATCH/505735/C4215-P147

>  <fragmenstein_outcome>  (121) 
acceptable

>  <fragmenstein_error>  (121) 


>  <ref_pdb>  (121) 
135

>  <HIPPO Pose ID>  (121) 
1813

>  <Energy>  (121) 
201.469452

$$$$
CNC(=O)[C@H]1CC[C@]2(CCc3nnc(N)n3[C@H]2Sc2nnc(-c3ccc[nH]3)o2)CC1
     RDKit          3D

 30 34  0  0  0  0  0  0  0  0999 V2000
    5.1199   -0.9067   37.1660 C   0  0  0  0  0  0  0  0  0  0  0  0
    4.2789   -1.2477   36.0560 N   0  0  0  0  0  0  0  0  0  0  0  0
    4.2085   -2.5440   35.2067 C   0  0  0  0  0  0  0  0  0  0  0  0
    4.7701   -3.5596   35.3295 O   0  0  0  0  0  0  0  0  0  0  0  0
    3.1422   -2.2981   34.1171 C   0  0  1  0  0  0  0  0  0  0  0  0
    3.2750   -3.3259   32.9779 C   0  0  0  0  0  0  0  0  0  0  0  0
    2.3990   -4.5514   33.2425 C   0  0  0  0  0  0  0  0  0  0  0  0
    0.8833   -4.2162   33.1921 C   0  0  1  0  0  0  0  0  0  0  0  0
    0.4199   -4.1319   31.6982 C   0  0  0  0  0  0  0  0  0  0  0  0
    0.4788   -5.4651   30.9596 C   0  0  0  0  0  0  0  0  0  0  0  0
   -0.2142   -6.5160   31.7318 C   0  0  0  0  0  0  0  0  0  0  0  0
   -0.8091   -7.5855   31.2534 N   0  0  0  0  0  0  0  0  0  0  0  0
   -1.4307   -8.2096   32.3010 N   0  0  0  0  0  0  0  0  0  0  0  0
   -1.2040   -7.5182   33.3954 C   0  0  0  0  0  0  0  0  0  0  0  0
   -1.6689   -7.7861   34.6331 N   0  0  0  0  0  0  0  0  0  0  0  0
   -0.3896   -6.4555   33.0951 N   0  0  0  0  0  0  0  0  0  0  0  0
   -0.0447   -5.2904   33.9162 C   0  0  1  0  0  0  0  0  0  0  0  0
    0.3472   -5.6252   35.6752 S   0  0  0  0  0  0  0  0  0  0  0  0
    1.6424   -6.7732   35.6342 C   0  0  0  0  0  0  0  0  0  0  0  0
    2.0484   -7.4466   34.5778 N   0  0  0  0  0  0  0  0  0  0  0  0
    3.1091   -8.2254   34.9936 N   0  0  0  0  0  0  0  0  0  0  0  0
    3.2759   -7.9846   36.2834 C   0  0  0  0  0  0  0  0  0  0  0  0
    4.2298   -8.6487   37.1066 C   0  0  0  0  0  0  0  0  0  0  0  0
    4.3337   -8.6872   38.4831 C   0  0  0  0  0  0  0  0  0  0  0  0
    5.4062   -9.5535   38.8080 C   0  0  0  0  0  0  0  0  0  0  0  0
    5.9378  -10.0093   37.6227 C   0  0  0  0  0  0  0  0  0  0  0  0
    5.2273   -9.4439   36.5951 N   0  0  0  0  0  0  0  0  0  0  0  0
    2.3608   -7.0818   36.7535 O   0  0  0  0  0  0  0  0  0  0  0  0
    0.6516   -2.7888   33.8027 C   0  0  0  0  0  0  0  0  0  0  0  0
    1.7453   -2.3229   34.7636 C   0  0  0  0  0  0  0  0  0  0  0  0
  1  2  1  0
  2  3  1  0
  3  4  2  0
  5  3  1  1
  5  6  1  0
  6  7  1  0
  8  7  1  6
  8  9  1  0
  9 10  1  0
 10 11  1  0
 11 12  2  0
 12 13  1  0
 13 14  2  0
 14 15  1  0
 14 16  1  0
 16 17  1  0
 17 18  1  1
 18 19  1  0
 19 20  2  0
 20 21  1  0
 21 22  2  0
 22 23  1  0
 23 24  2  0
 24 25  1  0
 25 26  2  0
 26 27  1  0
 22 28  1  0
  8 29  1  0
 29 30  1  0
 30  5  1  0
 17  8  1  0
 28 19  1  0
 16 11  1  0
 27 23  1  0
M  END
>  <tags>  (122) 
{'openbind_d68ev3c_c1_fragmenstein', 'fragmenstein_placed'}

>  <fragmenstein_mode>  (122) 
expansion

>  <smiles>  (122) 
C4230-P148

>  <alias>  (122) 
CNC(=O)[C@H]1CC[C@]2(CCc3nnc(N)n3[C@H]2Sc2nnc(-c3ccc[nH]3)o2)CC1

>  <fragmenstein_runtime>  (122) 
2.990504

>  <inchikey>  (122) 
UBFRGARCRUFNQH-UHFFFAOYSA-N

>  <HIPPO Compound ID>  (122) 
4230

>  <scratch_subdir>  (122) 
/opt/xchem-fragalysis-2/maxwin/BulkDock/SCRATCH/505735/C4230-P148

>  <fragmenstein_outcome>  (122) 
acceptable

>  <fragmenstein_error>  (122) 


>  <ref_pdb>  (122) 
135

>  <HIPPO Pose ID>  (122) 
1824

>  <Energy>  (122) 
3.367541

$$$$
Nc1nnc2n1[C@@H](Sc1nnc(-c3ccc[nH]3)o1)[C@@]1(CC2)CNCCN1
     RDKit          3D

 26 30  0  0  0  0  0  0  0  0999 V2000
   -1.6356   -7.6159   34.7526 N   0  0  0  0  0  0  0  0  0  0  0  0
   -1.3009   -7.3737   33.4689 C   0  0  0  0  0  0  0  0  0  0  0  0
   -1.6592   -8.1196   32.4455 N   0  0  0  0  0  0  0  0  0  0  0  0
   -1.1054   -7.6090   31.3103 N   0  0  0  0  0  0  0  0  0  0  0  0
   -0.4071   -6.5581   31.6650 C   0  0  0  0  0  0  0  0  0  0  0  0
   -0.5026   -6.3438   33.0233 N   0  0  0  0  0  0  0  0  0  0  0  0
    0.1274   -5.1895   33.7057 C   0  0  1  0  0  0  0  0  0  0  0  0
    0.4799   -5.4632   35.4908 S   0  0  0  0  0  0  0  0  0  0  0  0
    1.7471   -6.6413   35.4848 C   0  0  0  0  0  0  0  0  0  0  0  0
    2.0890   -7.4108   34.4724 N   0  0  0  0  0  0  0  0  0  0  0  0
    3.0998   -8.2344   34.9280 N   0  0  0  0  0  0  0  0  0  0  0  0
    3.2971   -7.9282   36.1987 C   0  0  0  0  0  0  0  0  0  0  0  0
    4.2218   -8.6001   37.0497 C   0  0  0  0  0  0  0  0  0  0  0  0
    4.3372   -8.5750   38.4257 C   0  0  0  0  0  0  0  0  0  0  0  0
    5.3697   -9.4756   38.7863 C   0  0  0  0  0  0  0  0  0  0  0  0
    5.8674  -10.0157   37.6218 C   0  0  0  0  0  0  0  0  0  0  0  0
    5.1724   -9.4713   36.5727 N   0  0  0  0  0  0  0  0  0  0  0  0
    2.4566   -6.9331   36.6176 O   0  0  0  0  0  0  0  0  0  0  0  0
    1.3122   -4.4509   32.8430 C   0  0  1  0  0  0  0  0  0  0  0  0
    1.6625   -5.3308   31.6137 C   0  0  0  0  0  0  0  0  0  0  0  0
    0.4510   -5.7386   30.7996 C   0  0  0  0  0  0  0  0  0  0  0  0
    0.8177   -3.0731   32.2307 C   0  0  0  0  0  0  0  0  0  0  0  0
    0.9871   -1.8912   33.0754 N   0  0  0  0  0  0  0  0  0  0  0  0
    2.3720   -1.7890   33.5380 C   0  0  0  0  0  0  0  0  0  0  0  0
    2.7516   -3.0469   34.3262 C   0  0  0  0  0  0  0  0  0  0  0  0
    2.6405   -4.2878   33.5376 N   0  0  0  0  0  0  0  0  0  0  0  0
  1  2  1  0
  2  3  2  0
  3  4  1  0
  4  5  2  0
  5  6  1  0
  6  7  1  0
  7  8  1  1
  8  9  1  0
  9 10  2  0
 10 11  1  0
 11 12  2  0
 12 13  1  0
 13 14  2  0
 14 15  1  0
 15 16  2  0
 16 17  1  0
 12 18  1  0
  7 19  1  0
 19 20  1  6
 20 21  1  0
 19 22  1  0
 22 23  1  0
 23 24  1  0
 24 25  1  0
 25 26  1  0
  6  2  1  0
 18  9  1  0
 26 19  1  0
 21  5  1  0
 17 13  1  0
M  END
>  <tags>  (123) 
{'openbind_d68ev3c_c1_fragmenstein', 'fragmenstein_placed'}

>  <fragmenstein_mode>  (123) 
expansion

>  <smiles>  (123) 
C4236-P148

>  <alias>  (123) 
Nc1nnc2n1[C@@H](Sc1nnc(-c3ccc[nH]3)o1)[C@@]1(CC2)CNCCN1

>  <fragmenstein_runtime>  (123) 
2.103742

>  <inchikey>  (123) 
YWUZODYUFNQTET-UHFFFAOYSA-N

>  <HIPPO Compound ID>  (123) 
4236

>  <scratch_subdir>  (123) 
/opt/xchem-fragalysis-2/maxwin/BulkDock/SCRATCH/505735/C4236-P148

>  <fragmenstein_outcome>  (123) 
acceptable

>  <fragmenstein_error>  (123) 


>  <ref_pdb>  (123) 
135

>  <HIPPO Pose ID>  (123) 
1832

>  <Energy>  (123) 
77.956561

$$$$
C=CCn1c(-c2cccnc2)nnc1-c1cc(Sc2nnc(-c3ccc[nH]3)o2)n2cnnc2c1
     RDKit          3D

 34 39  0  0  0  0  0  0  0  0999 V2000
    2.7930   -1.3624   29.0883 C   0  0  0  0  0  0  0  0  0  0  0  0
    2.0136   -2.3229   29.6034 C   0  0  0  0  0  0  0  0  0  0  0  0
    0.6697   -2.6977   29.0479 C   0  0  0  0  0  0  0  0  0  0  0  0
   -0.4060   -2.4389   29.9853 N   0  0  0  0  0  0  0  0  0  0  0  0
   -1.2128   -1.3218   29.9760 C   0  0  0  0  0  0  0  0  0  0  0  0
   -0.9512   -0.1062   29.2397 C   0  0  0  0  0  0  0  0  0  0  0  0
   -1.4930    0.1616   27.9883 C   0  0  0  0  0  0  0  0  0  0  0  0
   -1.2884    1.4153   27.4168 C   0  0  0  0  0  0  0  0  0  0  0  0
   -0.5019    2.3328   28.0972 C   0  0  0  0  0  0  0  0  0  0  0  0
    0.1000    2.0729   29.2775 N   0  0  0  0  0  0  0  0  0  0  0  0
   -0.1592    0.8707   29.8301 C   0  0  0  0  0  0  0  0  0  0  0  0
   -2.1312   -1.4513   30.9109 N   0  0  0  0  0  0  0  0  0  0  0  0
   -1.8838   -2.6059   31.5902 N   0  0  0  0  0  0  0  0  0  0  0  0
   -0.7964   -3.1595   31.0871 C   0  0  0  0  0  0  0  0  0  0  0  0
   -0.1563   -4.3216   31.6029 C   0  0  0  0  0  0  0  0  0  0  0  0
    0.0978   -4.4504   33.0493 C   0  0  0  0  0  0  0  0  0  0  0  0
   -0.0700   -5.6392   33.6612 C   0  0  0  0  0  0  0  0  0  0  0  0
    0.0747   -5.7869   35.3881 S   0  0  0  0  0  0  0  0  0  0  0  0
    1.4955   -6.7961   35.4785 C   0  0  0  0  0  0  0  0  0  0  0  0
    2.0576   -7.4097   34.4556 N   0  0  0  0  0  0  0  0  0  0  0  0
    3.1144   -8.1340   34.9593 N   0  0  0  0  0  0  0  0  0  0  0  0
    3.1443   -7.9140   36.2623 C   0  0  0  0  0  0  0  0  0  0  0  0
    4.0698   -8.5404   37.1472 C   0  0  0  0  0  0  0  0  0  0  0  0
    4.0983   -8.5736   38.5272 C   0  0  0  0  0  0  0  0  0  0  0  0
    5.1818   -9.4013   38.9145 C   0  0  0  0  0  0  0  0  0  0  0  0
    5.7933   -9.8428   37.7630 C   0  0  0  0  0  0  0  0  0  0  0  0
    5.1202   -9.3064   36.6962 N   0  0  0  0  0  0  0  0  0  0  0  0
    2.1323   -7.0756   36.6584 O   0  0  0  0  0  0  0  0  0  0  0  0
   -0.4707   -6.7088   32.8576 N   0  0  0  0  0  0  0  0  0  0  0  0
   -1.0592   -7.9034   33.1511 C   0  0  0  0  0  0  0  0  0  0  0  0
   -1.3385   -8.5611   32.0471 N   0  0  0  0  0  0  0  0  0  0  0  0
   -0.9252   -7.8021   30.9858 N   0  0  0  0  0  0  0  0  0  0  0  0
   -0.4514   -6.6755   31.4718 C   0  0  0  0  0  0  0  0  0  0  0  0
   -0.1976   -5.4319   30.8343 C   0  0  0  0  0  0  0  0  0  0  0  0
  1  2  2  0
  2  3  1  0
  3  4  1  0
  4  5  1  0
  5  6  1  0
  6  7  2  0
  7  8  1  0
  8  9  2  0
  9 10  1  0
 10 11  2  0
  5 12  2  0
 12 13  1  0
 13 14  2  0
 14 15  1  0
 15 16  1  0
 16 17  2  0
 17 18  1  0
 18 19  1  0
 19 20  2  0
 20 21  1  0
 21 22  2  0
 22 23  1  0
 23 24  2  0
 24 25  1  0
 25 26  2  0
 26 27  1  0
 22 28  1  0
 17 29  1  0
 29 30  1  0
 30 31  2  0
 31 32  1  0
 32 33  2  0
 33 34  1  0
 14  4  1  0
 34 15  2  0
 11  6  1  0
 28 19  1  0
 33 29  1  0
 27 23  1  0
M  END
>  <tags>  (124) 
{'openbind_d68ev3c_c1_fragmenstein', 'fragmenstein_placed'}

>  <fragmenstein_mode>  (124) 
expansion

>  <smiles>  (124) 
C4238-P148

>  <alias>  (124) 
C=CCn1c(-c2cccnc2)nnc1-c1cc(Sc2nnc(-c3ccc[nH]3)o2)n2cnnc2c1

>  <fragmenstein_runtime>  (124) 
4.961358

>  <inchikey>  (124) 
OMYBOPMNOHWIDB-UHFFFAOYSA-N

>  <HIPPO Compound ID>  (124) 
4238

>  <scratch_subdir>  (124) 
/opt/xchem-fragalysis-2/maxwin/BulkDock/SCRATCH/505735/C4238-P148

>  <fragmenstein_outcome>  (124) 
acceptable

>  <fragmenstein_error>  (124) 


>  <ref_pdb>  (124) 
135

>  <HIPPO Pose ID>  (124) 
1834

>  <Energy>  (124) 
89.690319

$$$$
CS(=O)(=O)N[C@H]1CCC[C@]2(CCc3nnc(N)n3[C@@H]2Sc2nnc(-c3ccc[nH]3)o2)C1
     RDKit          3D

 31 35  0  0  0  0  0  0  0  0999 V2000
   -1.3423   -0.7410   29.6786 C   0  0  0  0  0  0  0  0  0  0  0  0
   -1.7553   -1.3847   31.2861 S   0  0  0  0  0  0  0  0  0  0  0  0
   -2.4897   -0.3918   32.0362 O   0  0  0  0  0  0  0  0  0  0  0  0
   -2.2264   -2.7459   31.1682 O   0  0  0  0  0  0  0  0  0  0  0  0
   -0.2493   -1.4032   32.0100 N   0  0  0  0  0  0  0  0  0  0  0  0
    0.6238   -2.5378   31.7925 C   0  0  1  0  0  0  0  0  0  0  0  0
    2.0868   -2.0959   31.9702 C   0  0  0  0  0  0  0  0  0  0  0  0
    2.7550   -2.7294   33.1865 C   0  0  0  0  0  0  0  0  0  0  0  0
    2.6203   -4.2588   33.2181 C   0  0  0  0  0  0  0  0  0  0  0  0
    1.2357   -4.7882   32.7218 C   0  0  1  0  0  0  0  0  0  0  0  0
    1.4268   -5.2725   31.2488 C   0  0  0  0  0  0  0  0  0  0  0  0
    0.1604   -5.8132   30.6090 C   0  0  0  0  0  0  0  0  0  0  0  0
   -0.5581   -6.7356   31.5138 C   0  0  0  0  0  0  0  0  0  0  0  0
   -1.3527   -7.7228   31.1759 N   0  0  0  0  0  0  0  0  0  0  0  0
   -1.8403   -8.2604   32.3341 N   0  0  0  0  0  0  0  0  0  0  0  0
   -1.3371   -7.6040   33.3561 C   0  0  0  0  0  0  0  0  0  0  0  0
   -1.5949   -7.8322   34.6569 N   0  0  0  0  0  0  0  0  0  0  0  0
   -0.4529   -6.6710   32.8876 N   0  0  0  0  0  0  0  0  0  0  0  0
    0.7201   -6.0426   33.5117 C   0  0  2  0  0  0  0  0  0  0  0  0
    0.6956   -5.8890   35.3408 S   0  0  0  0  0  0  0  0  0  0  0  0
    1.9838   -7.0118   35.6977 C   0  0  0  0  0  0  0  0  0  0  0  0
    2.5580   -7.7558   34.7742 N   0  0  0  0  0  0  0  0  0  0  0  0
    3.5500   -8.4593   35.3786 N   0  0  0  0  0  0  0  0  0  0  0  0
    3.5017   -8.1480   36.6611 C   0  0  0  0  0  0  0  0  0  0  0  0
    4.3373   -8.7750   37.6222 C   0  0  0  0  0  0  0  0  0  0  0  0
    4.3280   -8.7127   38.9985 C   0  0  0  0  0  0  0  0  0  0  0  0
    5.3382   -9.5889   39.4680 C   0  0  0  0  0  0  0  0  0  0  0  0
    5.9405  -10.1554   38.3670 C   0  0  0  0  0  0  0  0  0  0  0  0
    5.3299   -9.6517   37.2507 N   0  0  0  0  0  0  0  0  0  0  0  0
    2.5231   -7.2204   36.9344 O   0  0  0  0  0  0  0  0  0  0  0  0
    0.2220   -3.6445   32.7747 C   0  0  0  0  0  0  0  0  0  0  0  0
  1  2  1  0
  2  3  2  0
  2  4  2  0
  2  5  1  0
  6  5  1  1
  6  7  1  0
  7  8  1  0
  8  9  1  0
 10  9  1  1
 10 11  1  0
 11 12  1  0
 12 13  1  0
 13 14  2  0
 14 15  1  0
 15 16  2  0
 16 17  1  0
 16 18  1  0
 18 19  1  0
 19 20  1  1
 20 21  1  0
 21 22  2  0
 22 23  1  0
 23 24  2  0
 24 25  1  0
 25 26  2  0
 26 27  1  0
 27 28  2  0
 28 29  1  0
 24 30  1  0
 10 31  1  0
 31  6  1  0
 19 10  1  0
 30 21  1  0
 18 13  1  0
 29 25  1  0
M  END
>  <tags>  (125) 
{'openbind_d68ev3c_c1_fragmenstein', 'fragmenstein_placed'}

>  <fragmenstein_mode>  (125) 
expansion

>  <smiles>  (125) 
C4257-P148

>  <alias>  (125) 
CS(=O)(=O)N[C@H]1CCC[C@]2(CCc3nnc(N)n3[C@@H]2Sc2nnc(-c3ccc[nH]3)o2)C1

>  <fragmenstein_runtime>  (125) 
3.049117

>  <inchikey>  (125) 
MVGWYBLLPKQETD-UHFFFAOYSA-N

>  <HIPPO Compound ID>  (125) 
4257

>  <scratch_subdir>  (125) 
/opt/xchem-fragalysis-2/maxwin/BulkDock/SCRATCH/505735/C4257-P148

>  <fragmenstein_outcome>  (125) 
acceptable

>  <fragmenstein_error>  (125) 


>  <ref_pdb>  (125) 
135

>  <HIPPO Pose ID>  (125) 
1842

>  <Energy>  (125) 
-52.473144

$$$$
O=S(=O)(NCc1cc(Sc2nnc(-c3ccc[nH]3)o2)n2cnnc2c1)c1ccns1
     RDKit          3D

 30 34  0  0  0  0  0  0  0  0999 V2000
    2.1079   -1.4716   29.4265 O   0  0  0  0  0  0  0  0  0  0  0  0
    0.7696   -2.0128   29.3204 S   0  0  0  0  0  0  0  0  0  0  0  0
    0.5166   -3.2128   28.5580 O   0  0  0  0  0  0  0  0  0  0  0  0
    0.2904   -2.3507   30.9128 N   0  0  0  0  0  0  0  0  0  0  0  0
    1.2209   -3.3050   31.5437 C   0  0  0  0  0  0  0  0  0  0  0  0
    0.4778   -4.5424   31.9474 C   0  0  0  0  0  0  0  0  0  0  0  0
    0.2671   -4.7353   33.3779 C   0  0  0  0  0  0  0  0  0  0  0  0
   -0.3271   -5.8589   33.8228 C   0  0  0  0  0  0  0  0  0  0  0  0
   -0.3918   -6.1914   35.5209 S   0  0  0  0  0  0  0  0  0  0  0  0
    1.1440   -7.0229   35.5887 C   0  0  0  0  0  0  0  0  0  0  0  0
    1.7700   -7.5363   34.5433 N   0  0  0  0  0  0  0  0  0  0  0  0
    2.9447   -8.0724   35.0089 N   0  0  0  0  0  0  0  0  0  0  0  0
    2.9676   -7.8476   36.3114 C   0  0  0  0  0  0  0  0  0  0  0  0
    4.0123   -8.2843   37.1706 C   0  0  0  0  0  0  0  0  0  0  0  0
    4.1454   -8.1586   38.5381 C   0  0  0  0  0  0  0  0  0  0  0  0
    5.3538   -8.7973   38.9080 C   0  0  0  0  0  0  0  0  0  0  0  0
    5.9252   -9.2936   37.7576 C   0  0  0  0  0  0  0  0  0  0  0  0
    5.1061   -8.9733   36.7068 N   0  0  0  0  0  0  0  0  0  0  0  0
    1.8554   -7.1739   36.7426 O   0  0  0  0  0  0  0  0  0  0  0  0
   -0.7773   -6.7921   32.8835 N   0  0  0  0  0  0  0  0  0  0  0  0
   -1.4646   -7.9673   33.0060 C   0  0  0  0  0  0  0  0  0  0  0  0
   -1.6608   -8.5076   31.8234 N   0  0  0  0  0  0  0  0  0  0  0  0
   -1.0905   -7.6857   30.8854 N   0  0  0  0  0  0  0  0  0  0  0  0
   -0.5726   -6.6562   31.5193 C   0  0  0  0  0  0  0  0  0  0  0  0
    0.0993   -5.4926   31.0634 C   0  0  0  0  0  0  0  0  0  0  0  0
   -0.2409   -0.7510   28.6725 C   0  0  0  0  0  0  0  0  0  0  0  0
   -1.3558   -0.7036   27.8648 C   0  0  0  0  0  0  0  0  0  0  0  0
   -1.6484    0.6440   27.5166 C   0  0  0  0  0  0  0  0  0  0  0  0
   -0.9159    1.5880   28.1010 N   0  0  0  0  0  0  0  0  0  0  0  0
    0.2158    0.8472   29.0506 S   0  0  0  0  0  0  0  0  0  0  0  0
  1  2  2  0
  2  3  2  0
  2  4  1  0
  4  5  1  0
  5  6  1  0
  6  7  1  0
  7  8  2  0
  8  9  1  0
  9 10  1  0
 10 11  2  0
 11 12  1  0
 12 13  2  0
 13 14  1  0
 14 15  2  0
 15 16  1  0
 16 17  2  0
 17 18  1  0
 13 19  1  0
  8 20  1  0
 20 21  1  0
 21 22  2  0
 22 23  1  0
 23 24  2  0
 24 25  1  0
  2 26  1  0
 26 27  2  0
 27 28  1  0
 28 29  2  0
 29 30  1  0
 25  6  2  0
 30 26  1  0
 19 10  1  0
 24 20  1  0
 18 14  1  0
M  END
>  <tags>  (126) 
{'openbind_d68ev3c_c1_fragmenstein', 'fragmenstein_placed'}

>  <fragmenstein_mode>  (126) 
expansion

>  <smiles>  (126) 
C4266-P149

>  <alias>  (126) 
O=S(=O)(NCc1cc(Sc2nnc(-c3ccc[nH]3)o2)n2cnnc2c1)c1ccns1

>  <fragmenstein_runtime>  (126) 
2.333293

>  <inchikey>  (126) 
WRDFEIVUTXUBBU-UHFFFAOYSA-N

>  <HIPPO Compound ID>  (126) 
4266

>  <scratch_subdir>  (126) 
/opt/xchem-fragalysis-2/maxwin/BulkDock/SCRATCH/505735/C4266-P149

>  <fragmenstein_outcome>  (126) 
acceptable

>  <fragmenstein_error>  (126) 


>  <ref_pdb>  (126) 
135

>  <HIPPO Pose ID>  (126) 
1852

>  <Energy>  (126) 
-49.242519

$$$$
O=S(=O)(NCc1cc(Sc2nnc(-c3ccc[nH]3)o2)n2cnnc2c1)N1CCOCC1
     RDKit          3D

 31 35  0  0  0  0  0  0  0  0999 V2000
   -1.0905   -2.4360   32.2491 O   0  0  0  0  0  0  0  0  0  0  0  0
    0.1510   -1.7015   32.3031 S   0  0  0  0  0  0  0  0  0  0  0  0
    0.9404   -1.6104   33.5051 O   0  0  0  0  0  0  0  0  0  0  0  0
    1.1059   -2.3152   31.0746 N   0  0  0  0  0  0  0  0  0  0  0  0
    1.9100   -3.5081   31.3718 C   0  0  0  0  0  0  0  0  0  0  0  0
    1.0332   -4.6768   31.7766 C   0  0  0  0  0  0  0  0  0  0  0  0
    0.8016   -4.8525   33.2127 C   0  0  0  0  0  0  0  0  0  0  0  0
    0.0023   -5.8399   33.6642 C   0  0  0  0  0  0  0  0  0  0  0  0
   -0.1788   -6.1100   35.3674 S   0  0  0  0  0  0  0  0  0  0  0  0
    1.2950   -7.0273   35.5330 C   0  0  0  0  0  0  0  0  0  0  0  0
    1.9129   -7.6295   34.5311 N   0  0  0  0  0  0  0  0  0  0  0  0
    3.0551   -8.1830   35.0460 N   0  0  0  0  0  0  0  0  0  0  0  0
    3.0628   -7.8901   36.3352 C   0  0  0  0  0  0  0  0  0  0  0  0
    4.0767   -8.3213   37.2316 C   0  0  0  0  0  0  0  0  0  0  0  0
    4.1938   -8.1388   38.5936 C   0  0  0  0  0  0  0  0  0  0  0  0
    5.3761   -8.7981   39.0091 C   0  0  0  0  0  0  0  0  0  0  0  0
    5.9480   -9.3622   37.8905 C   0  0  0  0  0  0  0  0  0  0  0  0
    5.1538   -9.0641   36.8149 N   0  0  0  0  0  0  0  0  0  0  0  0
    1.9725   -7.1508   36.7095 O   0  0  0  0  0  0  0  0  0  0  0  0
   -0.5688   -6.7112   32.7332 N   0  0  0  0  0  0  0  0  0  0  0  0
   -1.3757   -7.8104   32.8656 C   0  0  0  0  0  0  0  0  0  0  0  0
   -1.6242   -8.3374   31.6866 N   0  0  0  0  0  0  0  0  0  0  0  0
   -0.9686   -7.5859   30.7420 N   0  0  0  0  0  0  0  0  0  0  0  0
   -0.3404   -6.6123   31.3674 C   0  0  0  0  0  0  0  0  0  0  0  0
    0.4818   -5.5467   30.8997 C   0  0  0  0  0  0  0  0  0  0  0  0
   -0.1087   -0.1915   31.6916 N   0  0  0  0  0  0  0  0  0  0  0  0
    0.8505    0.9069   31.9300 C   0  0  0  0  0  0  0  0  0  0  0  0
    1.4355    1.4309   30.6227 C   0  0  0  0  0  0  0  0  0  0  0  0
    0.3920    1.7984   29.7154 O   0  0  0  0  0  0  0  0  0  0  0  0
   -0.3785    0.6469   29.3560 C   0  0  0  0  0  0  0  0  0  0  0  0
   -1.0487   -0.0006   30.5675 C   0  0  0  0  0  0  0  0  0  0  0  0
  1  2  2  0
  2  3  2  0
  2  4  1  0
  4  5  1  0
  5  6  1  0
  6  7  1  0
  7  8  2  0
  8  9  1  0
  9 10  1  0
 10 11  2  0
 11 12  1  0
 12 13  2  0
 13 14  1  0
 14 15  2  0
 15 16  1  0
 16 17  2  0
 17 18  1  0
 13 19  1  0
  8 20  1  0
 20 21  1  0
 21 22  2  0
 22 23  1  0
 23 24  2  0
 24 25  1  0
  2 26  1  0
 26 27  1  0
 27 28  1  0
 28 29  1  0
 29 30  1  0
 30 31  1  0
 25  6  2  0
 31 26  1  0
 19 10  1  0
 24 20  1  0
 18 14  1  0
M  END
>  <tags>  (127) 
{'openbind_d68ev3c_c1_fragmenstein', 'fragmenstein_placed'}

>  <fragmenstein_mode>  (127) 
expansion

>  <smiles>  (127) 
C4276-P149

>  <alias>  (127) 
O=S(=O)(NCc1cc(Sc2nnc(-c3ccc[nH]3)o2)n2cnnc2c1)N1CCOCC1

>  <fragmenstein_runtime>  (127) 
3.04411

>  <inchikey>  (127) 
DEAABERLIYOGSS-UHFFFAOYSA-N

>  <HIPPO Compound ID>  (127) 
4276

>  <scratch_subdir>  (127) 
/opt/xchem-fragalysis-2/maxwin/BulkDock/SCRATCH/505735/C4276-P149

>  <fragmenstein_outcome>  (127) 
acceptable

>  <fragmenstein_error>  (127) 


>  <ref_pdb>  (127) 
135

>  <HIPPO Pose ID>  (127) 
1854

>  <Energy>  (127) 
-113.904724

$$$$
c1ccc(-c2nc(CNc3cc(Nc4nnc(-c5ccccc5)[nH]4)n4cnnc4c3)n[nH]2)cc1
     RDKit          3D

 34 39  0  0  0  0  0  0  0  0999 V2000
   -1.3024    3.6054   26.8373 C   0  0  0  0  0  0  0  0  0  0  0  0
   -0.2930    3.6322   27.7981 C   0  0  0  0  0  0  0  0  0  0  0  0
    0.0855    2.4576   28.4634 C   0  0  0  0  0  0  0  0  0  0  0  0
   -0.5424    1.2420   28.1764 C   0  0  0  0  0  0  0  0  0  0  0  0
   -0.1784    0.0163   28.8903 C   0  0  0  0  0  0  0  0  0  0  0  0
    0.2907   -0.1084   30.1218 N   0  0  0  0  0  0  0  0  0  0  0  0
    0.4954   -1.4625   30.2620 C   0  0  0  0  0  0  0  0  0  0  0  0
    1.0794   -2.1102   31.5000 C   0  0  0  0  0  0  0  0  0  0  0  0
    1.6784   -3.4622   31.2920 N   0  0  0  0  0  0  0  0  0  0  0  0
    0.9534   -4.6078   31.6052 C   0  0  0  0  0  0  0  0  0  0  0  0
    0.9414   -5.0388   33.0093 C   0  0  0  0  0  0  0  0  0  0  0  0
    0.3064   -6.1720   33.3894 C   0  0  0  0  0  0  0  0  0  0  0  0
    0.3132   -6.7304   34.6620 N   0  0  0  0  0  0  0  0  0  0  0  0
    0.0255   -6.0780   35.8067 C   0  0  0  0  0  0  0  0  0  0  0  0
   -0.3049   -4.8323   36.0429 N   0  0  0  0  0  0  0  0  0  0  0  0
   -0.5936   -4.7206   37.3856 N   0  0  0  0  0  0  0  0  0  0  0  0
   -0.3731   -5.8889   37.9581 C   0  0  0  0  0  0  0  0  0  0  0  0
   -0.5344   -6.2415   39.3636 C   0  0  0  0  0  0  0  0  0  0  0  0
    0.0706   -7.3827   39.9151 C   0  0  0  0  0  0  0  0  0  0  0  0
   -0.1498   -7.7289   41.2500 C   0  0  0  0  0  0  0  0  0  0  0  0
   -0.9729   -6.9384   42.0479 C   0  0  0  0  0  0  0  0  0  0  0  0
   -1.5670   -5.7960   41.5172 C   0  0  0  0  0  0  0  0  0  0  0  0
   -1.3424   -5.4454   40.1850 C   0  0  0  0  0  0  0  0  0  0  0  0
   -0.0124   -6.7751   36.9794 N   0  0  0  0  0  0  0  0  0  0  0  0
   -0.3767   -6.8697   32.3847 N   0  0  0  0  0  0  0  0  0  0  0  0
   -1.2164   -7.9440   32.4602 C   0  0  0  0  0  0  0  0  0  0  0  0
   -1.5698   -8.3228   31.2588 N   0  0  0  0  0  0  0  0  0  0  0  0
   -1.0213   -7.4440   30.3608 N   0  0  0  0  0  0  0  0  0  0  0  0
   -0.3504   -6.5419   31.0439 C   0  0  0  0  0  0  0  0  0  0  0  0
    0.3454   -5.3690   30.6686 C   0  0  0  0  0  0  0  0  0  0  0  0
    0.2054   -2.1834   29.1695 N   0  0  0  0  0  0  0  0  0  0  0  0
   -0.2650   -1.2378   28.3394 N   0  0  0  0  0  0  0  0  0  0  0  0
   -1.5299    1.2333   27.1849 C   0  0  0  0  0  0  0  0  0  0  0  0
   -1.9261    2.4031   26.5310 C   0  0  0  0  0  0  0  0  0  0  0  0
  1  2  2  0
  2  3  1  0
  3  4  2  0
  4  5  1  0
  5  6  2  0
  6  7  1  0
  7  8  1  0
  8  9  1  0
  9 10  1  0
 10 11  1  0
 11 12  2  0
 12 13  1  0
 13 14  1  0
 14 15  2  0
 15 16  1  0
 16 17  2  0
 17 18  1  0
 18 19  2  0
 19 20  1  0
 20 21  2  0
 21 22  1  0
 22 23  2  0
 17 24  1  0
 12 25  1  0
 25 26  1  0
 26 27  2  0
 27 28  1  0
 28 29  2  0
 29 30  1  0
  7 31  2  0
 31 32  1  0
  4 33  1  0
 33 34  2  0
 34  1  1  0
 32  5  1  0
 30 10  2  0
 24 14  1  0
 29 25  1  0
 23 18  1  0
M  END
>  <tags>  (128) 
{'openbind_d68ev3c_c1_fragmenstein', 'fragmenstein_placed'}

>  <fragmenstein_mode>  (128) 
expansion

>  <smiles>  (128) 
C4293-P150

>  <alias>  (128) 
c1ccc(-c2nc(CNc3cc(Nc4nnc(-c5ccccc5)[nH]4)n4cnnc4c3)n[nH]2)cc1

>  <fragmenstein_runtime>  (128) 
9.10983

>  <inchikey>  (128) 
IWVZQESOJJWOPR-UHFFFAOYSA-N

>  <HIPPO Compound ID>  (128) 
4293

>  <scratch_subdir>  (128) 
/opt/xchem-fragalysis-2/maxwin/BulkDock/SCRATCH/505735/C4293-P150

>  <fragmenstein_outcome>  (128) 
acceptable

>  <fragmenstein_error>  (128) 


>  <ref_pdb>  (128) 
135

>  <HIPPO Pose ID>  (128) 
1866

>  <Energy>  (128) 
106.45519

$$$$
Nc1nnc2n1[C@H](Nc1nnc(-c3ccccc3)[nH]1)[C@]1(CC2)CNCCN1
     RDKit          3D

 27 31  0  0  0  0  0  0  0  0999 V2000
   -1.2554   -7.9860   34.0015 N   0  0  0  0  0  0  0  0  0  0  0  0
   -1.0346   -7.6332   32.7275 C   0  0  0  0  0  0  0  0  0  0  0  0
   -1.4553   -8.1738   31.6072 N   0  0  0  0  0  0  0  0  0  0  0  0
   -1.0438   -7.3645   30.5645 N   0  0  0  0  0  0  0  0  0  0  0  0
   -0.3656   -6.3626   31.0858 C   0  0  0  0  0  0  0  0  0  0  0  0
   -0.2265   -6.5878   32.4261 N   0  0  0  0  0  0  0  0  0  0  0  0
    0.7459   -5.8613   33.2400 C   0  0  2  0  0  0  0  0  0  0  0  0
    0.9392   -6.3295   34.6230 N   0  0  0  0  0  0  0  0  0  0  0  0
    0.2412   -5.8584   35.6727 C   0  0  0  0  0  0  0  0  0  0  0  0
   -0.5653   -4.8399   35.8108 N   0  0  0  0  0  0  0  0  0  0  0  0
   -0.9965   -4.8172   37.1198 N   0  0  0  0  0  0  0  0  0  0  0  0
   -0.4296   -5.8200   37.7685 C   0  0  0  0  0  0  0  0  0  0  0  0
   -0.5658   -6.1672   39.1833 C   0  0  0  0  0  0  0  0  0  0  0  0
    0.0620   -7.2928   39.7444 C   0  0  0  0  0  0  0  0  0  0  0  0
   -0.1262   -7.6210   41.0904 C   0  0  0  0  0  0  0  0  0  0  0  0
   -0.9421   -6.8298   41.8937 C   0  0  0  0  0  0  0  0  0  0  0  0
   -1.5651   -5.7074   41.3551 C   0  0  0  0  0  0  0  0  0  0  0  0
   -1.3732   -5.3761   40.0115 C   0  0  0  0  0  0  0  0  0  0  0  0
    0.3217   -6.5194   36.8645 N   0  0  0  0  0  0  0  0  0  0  0  0
    0.6719   -4.3270   32.8934 C   0  0  2  0  0  0  0  0  0  0  0  0
    1.0253   -4.2619   31.3627 C   0  0  0  0  0  0  0  0  0  0  0  0
    0.1264   -5.1118   30.4487 C   0  0  0  0  0  0  0  0  0  0  0  0
    1.7560   -3.5047   33.6738 C   0  0  0  0  0  0  0  0  0  0  0  0
    1.2213   -2.6825   34.7709 N   0  0  0  0  0  0  0  0  0  0  0  0
    0.2262   -1.7325   34.2408 C   0  0  0  0  0  0  0  0  0  0  0  0
   -0.7016   -2.3066   33.1449 C   0  0  0  0  0  0  0  0  0  0  0  0
   -0.7098   -3.7787   33.0684 N   0  0  0  0  0  0  0  0  0  0  0  0
  1  2  1  0
  2  3  2  0
  3  4  1  0
  4  5  2  0
  5  6  1  0
  6  7  1  0
  7  8  1  1
  8  9  1  0
  9 10  2  0
 10 11  1  0
 11 12  2  0
 12 13  1  0
 13 14  2  0
 14 15  1  0
 15 16  2  0
 16 17  1  0
 17 18  2  0
 12 19  1  0
  7 20  1  0
 20 21  1  6
 21 22  1  0
 20 23  1  0
 23 24  1  0
 24 25  1  0
 25 26  1  0
 26 27  1  0
  6  2  1  0
 19  9  1  0
 27 20  1  0
 22  5  1  0
 18 13  1  0
M  END
>  <tags>  (129) 
{'openbind_d68ev3c_c1_fragmenstein', 'fragmenstein_placed'}

>  <fragmenstein_mode>  (129) 
expansion

>  <smiles>  (129) 
C4297-P150

>  <alias>  (129) 
Nc1nnc2n1[C@H](Nc1nnc(-c3ccccc3)[nH]1)[C@]1(CC2)CNCCN1

>  <fragmenstein_runtime>  (129) 
2.609323

>  <inchikey>  (129) 
MYBRTELVIPBTHT-UHFFFAOYSA-N

>  <HIPPO Compound ID>  (129) 
4297

>  <scratch_subdir>  (129) 
/opt/xchem-fragalysis-2/maxwin/BulkDock/SCRATCH/505735/C4297-P150

>  <fragmenstein_outcome>  (129) 
acceptable

>  <fragmenstein_error>  (129) 


>  <ref_pdb>  (129) 
135

>  <HIPPO Pose ID>  (129) 
1867

>  <Energy>  (129) 
100.918629

$$$$
O=S(=O)(NCc1cc(Nc2nnc(-c3ccccc3)[nH]2)n2cnnc2c1)c1ccns1
     RDKit          3D

 31 35  0  0  0  0  0  0  0  0999 V2000
    1.1595   -3.0098   28.4809 O   0  0  0  0  0  0  0  0  0  0  0  0
    1.1566   -1.8855   29.3874 S   0  0  0  0  0  0  0  0  0  0  0  0
    2.3930   -1.2513   29.7870 O   0  0  0  0  0  0  0  0  0  0  0  0
    0.4007   -2.3815   30.8175 N   0  0  0  0  0  0  0  0  0  0  0  0
    1.2786   -3.2077   31.6647 C   0  0  0  0  0  0  0  0  0  0  0  0
    0.6968   -4.5806   31.8419 C   0  0  0  0  0  0  0  0  0  0  0  0
    0.7494   -5.1190   33.2031 C   0  0  0  0  0  0  0  0  0  0  0  0
    0.1608   -6.2951   33.5074 C   0  0  0  0  0  0  0  0  0  0  0  0
    0.1543   -6.8891   34.7613 N   0  0  0  0  0  0  0  0  0  0  0  0
   -0.0531   -6.2260   35.9169 C   0  0  0  0  0  0  0  0  0  0  0  0
   -0.2963   -4.9592   36.1519 N   0  0  0  0  0  0  0  0  0  0  0  0
   -0.5360   -4.8195   37.4973 N   0  0  0  0  0  0  0  0  0  0  0  0
   -0.3716   -5.9956   38.0716 C   0  0  0  0  0  0  0  0  0  0  0  0
   -0.5304   -6.3278   39.4796 C   0  0  0  0  0  0  0  0  0  0  0  0
    0.0639   -7.4699   40.0386 C   0  0  0  0  0  0  0  0  0  0  0  0
   -0.1605   -7.8015   41.3756 C   0  0  0  0  0  0  0  0  0  0  0  0
   -0.9766   -6.9955   42.1656 C   0  0  0  0  0  0  0  0  0  0  0  0
   -1.5595   -5.8515   41.6257 C   0  0  0  0  0  0  0  0  0  0  0  0
   -1.3308   -5.5149   40.2916 C   0  0  0  0  0  0  0  0  0  0  0  0
   -0.0879   -6.9115   37.0940 N   0  0  0  0  0  0  0  0  0  0  0  0
   -0.4719   -6.9620   32.4546 N   0  0  0  0  0  0  0  0  0  0  0  0
   -1.2780   -8.0587   32.4587 C   0  0  0  0  0  0  0  0  0  0  0  0
   -1.5589   -8.4102   31.2321 N   0  0  0  0  0  0  0  0  0  0  0  0
   -1.0321   -7.4669   30.3894 N   0  0  0  0  0  0  0  0  0  0  0  0
   -0.4349   -6.5622   31.1325 C   0  0  0  0  0  0  0  0  0  0  0  0
    0.1571   -5.3106   30.8405 C   0  0  0  0  0  0  0  0  0  0  0  0
    0.1464   -0.6562   28.6664 C   0  0  0  0  0  0  0  0  0  0  0  0
   -1.0213   -0.6591   27.9332 C   0  0  0  0  0  0  0  0  0  0  0  0
   -1.3646    0.6735   27.5638 C   0  0  0  0  0  0  0  0  0  0  0  0
   -0.5782    1.6469   28.0128 N   0  0  0  0  0  0  0  0  0  0  0  0
    0.6510    0.9582   28.8743 S   0  0  0  0  0  0  0  0  0  0  0  0
  1  2  2  0
  2  3  2  0
  2  4  1  0
  4  5  1  0
  5  6  1  0
  6  7  1  0
  7  8  2  0
  8  9  1  0
  9 10  1  0
 10 11  2  0
 11 12  1  0
 12 13  2  0
 13 14  1  0
 14 15  2  0
 15 16  1  0
 16 17  2  0
 17 18  1  0
 18 19  2  0
 13 20  1  0
  8 21  1  0
 21 22  1  0
 22 23  2  0
 23 24  1  0
 24 25  2  0
 25 26  1  0
  2 27  1  0
 27 28  2  0
 28 29  1  0
 29 30  2  0
 30 31  1  0
 26  6  2  0
 31 27  1  0
 20 10  1  0
 25 21  1  0
 19 14  1  0
M  END
>  <tags>  (130) 
{'openbind_d68ev3c_c1_fragmenstein', 'fragmenstein_placed'}

>  <fragmenstein_mode>  (130) 
expansion

>  <smiles>  (130) 
C4305-P150

>  <alias>  (130) 
O=S(=O)(NCc1cc(Nc2nnc(-c3ccccc3)[nH]2)n2cnnc2c1)c1ccns1

>  <fragmenstein_runtime>  (130) 
4.349524

>  <inchikey>  (130) 
RAWKTIYUUMGONY-UHFFFAOYSA-N

>  <HIPPO Compound ID>  (130) 
4305

>  <scratch_subdir>  (130) 
/opt/xchem-fragalysis-2/maxwin/BulkDock/SCRATCH/505735/C4305-P150

>  <fragmenstein_outcome>  (130) 
acceptable

>  <fragmenstein_error>  (130) 


>  <ref_pdb>  (130) 
135

>  <HIPPO Pose ID>  (130) 
1873

>  <Energy>  (130) 
-34.935325

$$$$
Cn1ccc(S(=O)(=O)NCc2cc(N3CCC[C@@H](c4ccccc4)S3(=O)=O)n3cnnc3c2)n1
     RDKit          3D

 34 38  0  0  0  0  0  0  0  0999 V2000
   -1.6100   -0.6739   27.8167 C   0  0  0  0  0  0  0  0  0  0  0  0
   -0.3501   -0.3000   28.4043 N   0  0  0  0  0  0  0  0  0  0  0  0
    0.1391    0.9623   28.5591 C   0  0  0  0  0  0  0  0  0  0  0  0
    1.2640    0.8394   29.3421 C   0  0  0  0  0  0  0  0  0  0  0  0
    1.3675   -0.5459   29.6186 C   0  0  0  0  0  0  0  0  0  0  0  0
    2.5062   -1.2911   30.7239 S   0  0  0  0  0  0  0  0  0  0  0  0
    2.1752   -0.7287   32.0183 O   0  0  0  0  0  0  0  0  0  0  0  0
    3.8145   -1.1189   30.1354 O   0  0  0  0  0  0  0  0  0  0  0  0
    2.2145   -2.9693   30.8662 N   0  0  0  0  0  0  0  0  0  0  0  0
    0.7852   -3.2866   30.9232 C   0  0  0  0  0  0  0  0  0  0  0  0
    0.5624   -4.6169   31.5543 C   0  0  0  0  0  0  0  0  0  0  0  0
    0.7232   -4.6950   32.9961 C   0  0  0  0  0  0  0  0  0  0  0  0
    0.2002   -5.7404   33.6578 C   0  0  0  0  0  0  0  0  0  0  0  0
    0.4078   -5.6270   35.0633 N   0  0  0  0  0  0  0  0  0  0  0  0
   -0.4572   -4.7091   35.8449 C   0  0  0  0  0  0  0  0  0  0  0  0
    0.3568   -4.1310   37.0013 C   0  0  0  0  0  0  0  0  0  0  0  0
    0.8733   -5.2114   37.9566 C   0  0  0  0  0  0  0  0  0  0  0  0
    1.7888   -6.2278   37.2532 C   0  0  1  0  0  0  0  0  0  0  0  0
    2.3568   -7.2896   38.1735 C   0  0  0  0  0  0  0  0  0  0  0  0
    3.7254   -7.6011   38.1132 C   0  0  0  0  0  0  0  0  0  0  0  0
    4.2819   -8.5518   38.9723 C   0  0  0  0  0  0  0  0  0  0  0  0
    3.4820   -9.2021   39.9074 C   0  0  0  0  0  0  0  0  0  0  0  0
    2.1233   -8.9108   39.9740 C   0  0  0  0  0  0  0  0  0  0  0  0
    1.5618   -7.9719   39.1063 C   0  0  0  0  0  0  0  0  0  0  0  0
    0.9120   -7.0269   35.8914 S   0  0  0  0  0  0  0  0  0  0  0  0
   -0.3002   -7.6415   36.3801 O   0  0  0  0  0  0  0  0  0  0  0  0
    1.8526   -7.7155   35.0243 O   0  0  0  0  0  0  0  0  0  0  0  0
   -0.4506   -6.7441   32.9308 N   0  0  0  0  0  0  0  0  0  0  0  0
   -1.2137   -7.8149   33.2825 C   0  0  0  0  0  0  0  0  0  0  0  0
   -1.6494   -8.4428   32.2091 N   0  0  0  0  0  0  0  0  0  0  0  0
   -1.1992   -7.7755   31.1066 N   0  0  0  0  0  0  0  0  0  0  0  0
   -0.5076   -6.7471   31.5397 C   0  0  0  0  0  0  0  0  0  0  0  0
    0.0351   -5.6388   30.8521 C   0  0  0  0  0  0  0  0  0  0  0  0
    0.3704   -1.2331   29.0372 N   0  0  0  0  0  0  0  0  0  0  0  0
  1  2  1  0
  2  3  1  0
  3  4  2  0
  4  5  1  0
  5  6  1  0
  6  7  2  0
  6  8  2  0
  6  9  1  0
  9 10  1  0
 10 11  1  0
 11 12  1  0
 12 13  2  0
 13 14  1  0
 14 15  1  0
 15 16  1  0
 16 17  1  0
 17 18  1  0
 18 19  1  1
 19 20  2  0
 20 21  1  0
 21 22  2  0
 22 23  1  0
 23 24  2  0
 18 25  1  0
 25 26  2  0
 25 27  2  0
 13 28  1  0
 28 29  1  0
 29 30  2  0
 30 31  1  0
 31 32  2  0
 32 33  1  0
  5 34  2  0
 34  2  1  0
 33 11  2  0
 25 14  1  0
 32 28  1  0
 24 19  1  0
M  END
>  <tags>  (131) 
{'openbind_d68ev3c_c1_fragmenstein', 'fragmenstein_placed'}

>  <fragmenstein_mode>  (131) 
expansion

>  <smiles>  (131) 
C4343-P142

>  <alias>  (131) 
Cn1ccc(S(=O)(=O)NCc2cc(N3CCC[C@@H](c4ccccc4)S3(=O)=O)n3cnnc3c2)n1

>  <fragmenstein_runtime>  (131) 
6.597419

>  <inchikey>  (131) 
IELYVEIWJLORIZ-UHFFFAOYSA-N

>  <HIPPO Compound ID>  (131) 
4343

>  <scratch_subdir>  (131) 
/opt/xchem-fragalysis-2/maxwin/BulkDock/SCRATCH/505735/C4343-P142

>  <fragmenstein_outcome>  (131) 
acceptable

>  <fragmenstein_error>  (131) 


>  <ref_pdb>  (131) 
135

>  <HIPPO Pose ID>  (131) 
1901

>  <Energy>  (131) 
71.6955

$$$$
Nc1ccc(S(=O)(=O)NCCc2cc(N3CCC[C@H](c4ccccc4)S3(=O)=O)n3cnnc3c2)cn1
     RDKit          3D

 36 40  0  0  0  0  0  0  0  0999 V2000
   -2.2631    3.1620   25.4328 N   0  0  0  0  0  0  0  0  0  0  0  0
   -1.6871    2.5035   26.5143 C   0  0  0  0  0  0  0  0  0  0  0  0
   -1.8657    1.1381   26.6776 C   0  0  0  0  0  0  0  0  0  0  0  0
   -1.2044    0.4648   27.7038 C   0  0  0  0  0  0  0  0  0  0  0  0
   -0.3932    1.1952   28.5555 C   0  0  0  0  0  0  0  0  0  0  0  0
    0.4542    0.4330   29.8977 S   0  0  0  0  0  0  0  0  0  0  0  0
    1.6309    1.2258   30.1812 O   0  0  0  0  0  0  0  0  0  0  0  0
   -0.5110    0.1168   30.9280 O   0  0  0  0  0  0  0  0  0  0  0  0
    1.0704   -1.0100   29.2764 N   0  0  0  0  0  0  0  0  0  0  0  0
    0.4646   -2.3080   29.6456 C   0  0  0  0  0  0  0  0  0  0  0  0
    1.1792   -2.9312   30.8680 C   0  0  0  0  0  0  0  0  0  0  0  0
    0.6580   -4.2709   31.4035 C   0  0  0  0  0  0  0  0  0  0  0  0
    0.7589   -4.4804   32.8579 C   0  0  0  0  0  0  0  0  0  0  0  0
    0.2171   -5.5702   33.4509 C   0  0  0  0  0  0  0  0  0  0  0  0
    0.3790   -5.5682   34.8787 N   0  0  0  0  0  0  0  0  0  0  0  0
   -0.2687   -4.5182   35.6958 C   0  0  0  0  0  0  0  0  0  0  0  0
    0.7718   -3.9387   36.6604 C   0  0  0  0  0  0  0  0  0  0  0  0
    1.8253   -4.9489   37.1509 C   0  0  0  0  0  0  0  0  0  0  0  0
    1.2405   -6.3508   37.3170 C   0  0  2  0  0  0  0  0  0  0  0  0
    2.0992   -7.3574   38.0457 C   0  0  0  0  0  0  0  0  0  0  0  0
    3.4801   -7.4767   37.8379 C   0  0  0  0  0  0  0  0  0  0  0  0
    4.2335   -8.3941   38.5778 C   0  0  0  0  0  0  0  0  0  0  0  0
    3.6200   -9.2017   39.5326 C   0  0  0  0  0  0  0  0  0  0  0  0
    2.2501   -9.1002   39.7438 C   0  0  0  0  0  0  0  0  0  0  0  0
    1.4950   -8.1918   39.0021 C   0  0  0  0  0  0  0  0  0  0  0  0
    0.7015   -7.0190   35.7130 S   0  0  0  0  0  0  0  0  0  0  0  0
   -0.5696   -7.6717   35.9370 O   0  0  0  0  0  0  0  0  0  0  0  0
    1.7672   -7.6844   34.9850 O   0  0  0  0  0  0  0  0  0  0  0  0
   -0.4126   -6.5273   32.6404 N   0  0  0  0  0  0  0  0  0  0  0  0
   -1.1456   -7.6581   32.8837 C   0  0  0  0  0  0  0  0  0  0  0  0
   -1.5114   -8.2280   31.7549 N   0  0  0  0  0  0  0  0  0  0  0  0
   -1.0563   -7.4504   30.7256 N   0  0  0  0  0  0  0  0  0  0  0  0
   -0.4438   -6.4115   31.2513 C   0  0  0  0  0  0  0  0  0  0  0  0
    0.0958   -5.2381   30.6477 C   0  0  0  0  0  0  0  0  0  0  0  0
   -0.2585    2.5569   28.3271 C   0  0  0  0  0  0  0  0  0  0  0  0
   -0.8776    3.2179   27.3108 N   0  0  0  0  0  0  0  0  0  0  0  0
  1  2  1  0
  2  3  2  0
  3  4  1  0
  4  5  2  0
  5  6  1  0
  6  7  2  0
  6  8  2  0
  6  9  1  0
  9 10  1  0
 10 11  1  0
 11 12  1  0
 12 13  1  0
 13 14  2  0
 14 15  1  0
 15 16  1  0
 16 17  1  0
 17 18  1  0
 18 19  1  0
 19 20  1  6
 20 21  2  0
 21 22  1  0
 22 23  2  0
 23 24  1  0
 24 25  2  0
 19 26  1  0
 26 27  2  0
 26 28  2  0
 14 29  1  0
 29 30  1  0
 30 31  2  0
 31 32  1  0
 32 33  2  0
 33 34  1  0
  5 35  1  0
 35 36  2  0
 36  2  1  0
 34 12  2  0
 26 15  1  0
 33 29  1  0
 25 20  1  0
M  END
>  <tags>  (132) 
{'openbind_d68ev3c_c1_fragmenstein', 'fragmenstein_placed'}

>  <fragmenstein_mode>  (132) 
expansion

>  <smiles>  (132) 
C4345-P152

>  <alias>  (132) 
Nc1ccc(S(=O)(=O)NCCc2cc(N3CCC[C@H](c4ccccc4)S3(=O)=O)n3cnnc3c2)cn1

>  <fragmenstein_runtime>  (132) 
25.63833

>  <inchikey>  (132) 
VADFIGYFCGXXGU-UHFFFAOYSA-N

>  <HIPPO Compound ID>  (132) 
4345

>  <scratch_subdir>  (132) 
/opt/xchem-fragalysis-2/maxwin/BulkDock/SCRATCH/505735/C4345-P152

>  <fragmenstein_outcome>  (132) 
acceptable

>  <fragmenstein_error>  (132) 


>  <ref_pdb>  (132) 
135

>  <HIPPO Pose ID>  (132) 
1902

>  <Energy>  (132) 
-22.963579

$$$$
CS(=O)(=O)N[C@H]1CCC[C@]2(CCc3nnc(N)n3[C@@H]2N2CCC[C@@H](c3ccccc3)S2(=O)=O)C1
     RDKit          3D

 34 38  0  0  0  0  0  0  0  0999 V2000
   -1.8260   -0.2841   30.2147 C   0  0  0  0  0  0  0  0  0  0  0  0
   -1.5045   -1.4674   31.4792 S   0  0  0  0  0  0  0  0  0  0  0  0
   -1.4585   -0.8046   32.7613 O   0  0  0  0  0  0  0  0  0  0  0  0
   -2.3188   -2.6423   31.2559 O   0  0  0  0  0  0  0  0  0  0  0  0
    0.0709   -1.8349   31.0301 N   0  0  0  0  0  0  0  0  0  0  0  0
    0.8972   -2.6383   31.9109 C   0  0  1  0  0  0  0  0  0  0  0  0
    1.7331   -1.8773   32.9267 C   0  0  0  0  0  0  0  0  0  0  0  0
    2.3060   -2.8511   33.9774 C   0  0  0  0  0  0  0  0  0  0  0  0
    2.4156   -4.3128   33.4885 C   0  0  0  0  0  0  0  0  0  0  0  0
    1.0875   -4.8866   32.8701 C   0  0  1  0  0  0  0  0  0  0  0  0
    1.4233   -5.5105   31.4805 C   0  0  0  0  0  0  0  0  0  0  0  0
    0.2269   -6.0657   30.7260 C   0  0  0  0  0  0  0  0  0  0  0  0
   -0.6522   -6.8491   31.6185 C   0  0  0  0  0  0  0  0  0  0  0  0
   -1.4952   -7.7744   31.2366 N   0  0  0  0  0  0  0  0  0  0  0  0
   -2.0638   -8.2814   32.3627 N   0  0  0  0  0  0  0  0  0  0  0  0
   -1.5779   -7.6606   33.4147 C   0  0  0  0  0  0  0  0  0  0  0  0
   -1.9407   -7.9144   34.6860 N   0  0  0  0  0  0  0  0  0  0  0  0
   -0.6525   -6.7407   33.0047 N   0  0  0  0  0  0  0  0  0  0  0  0
    0.4672   -6.0780   33.6963 C   0  0  2  0  0  0  0  0  0  0  0  0
    0.5338   -5.8490   35.1604 N   0  0  0  0  0  0  0  0  0  0  0  0
   -0.5017   -5.0447   35.8301 C   0  0  0  0  0  0  0  0  0  0  0  0
    0.1075   -4.3685   37.0660 C   0  0  0  0  0  0  0  0  0  0  0  0
    0.6748   -5.3590   38.0921 C   0  0  0  0  0  0  0  0  0  0  0  0
    1.7908   -6.2348   37.5034 C   0  0  1  0  0  0  0  0  0  0  0  0
    2.3788   -7.2670   38.4421 C   0  0  0  0  0  0  0  0  0  0  0  0
    3.7672   -7.4828   38.4505 C   0  0  0  0  0  0  0  0  0  0  0  0
    4.3305   -8.4780   39.2515 C   0  0  0  0  0  0  0  0  0  0  0  0
    3.5167   -9.2725   40.0534 C   0  0  0  0  0  0  0  0  0  0  0  0
    2.1405   -9.0713   40.0568 C   0  0  0  0  0  0  0  0  0  0  0  0
    1.5743   -8.0767   39.2590 C   0  0  0  0  0  0  0  0  0  0  0  0
    1.1559   -7.1376   36.0769 S   0  0  0  0  0  0  0  0  0  0  0  0
    0.0057   -7.9261   36.4571 O   0  0  0  0  0  0  0  0  0  0  0  0
    2.2322   -7.7263   35.3029 O   0  0  0  0  0  0  0  0  0  0  0  0
    0.1177   -3.7432   32.6120 C   0  0  0  0  0  0  0  0  0  0  0  0
  1  2  1  0
  2  3  2  0
  2  4  2  0
  2  5  1  0
  6  5  1  1
  6  7  1  0
  7  8  1  0
  8  9  1  0
 10  9  1  1
 10 11  1  0
 11 12  1  0
 12 13  1  0
 13 14  2  0
 14 15  1  0
 15 16  2  0
 16 17  1  0
 16 18  1  0
 18 19  1  0
 19 20  1  1
 20 21  1  0
 21 22  1  0
 22 23  1  0
 23 24  1  0
 24 25  1  1
 25 26  2  0
 26 27  1  0
 27 28  2  0
 28 29  1  0
 29 30  2  0
 24 31  1  0
 31 32  2  0
 31 33  2  0
 10 34  1  0
 34  6  1  0
 19 10  1  0
 31 20  1  0
 18 13  1  0
 30 25  1  0
M  END
>  <tags>  (133) 
{'openbind_d68ev3c_c1_fragmenstein', 'fragmenstein_placed'}

>  <fragmenstein_mode>  (133) 
expansion

>  <smiles>  (133) 
C4328-P152

>  <alias>  (133) 
CS(=O)(=O)N[C@H]1CCC[C@]2(CCc3nnc(N)n3[C@@H]2N2CCC[C@@H](c3ccccc3)S2(=O)=O)C1

>  <fragmenstein_runtime>  (133) 
15.339557

>  <inchikey>  (133) 
XARZUABJGNNAIR-UHFFFAOYSA-N

>  <HIPPO Compound ID>  (133) 
4328

>  <scratch_subdir>  (133) 
/opt/xchem-fragalysis-2/maxwin/BulkDock/SCRATCH/505735/C4328-P152

>  <fragmenstein_outcome>  (133) 
acceptable

>  <fragmenstein_error>  (133) 


>  <ref_pdb>  (133) 
135

>  <HIPPO Pose ID>  (133) 
1909

>  <Energy>  (133) 
-43.851374

$$$$
N[C@H](NC[C@@H](Cc1nccc(=O)[nH]1)NS(=O)(=O)c1ccns1)c1ocnc1C(=O)Nc1c[nH]c(=O)c2ccccc12
     RDKit          3D

 41 45  0  0  0  0  0  0  0  0999 V2000
    1.3696   -3.7462   25.5057 N   0  0  0  0  0  0  0  0  0  0  0  0
    2.1107   -3.3605   26.6676 C   0  0  2  0  0  0  0  0  0  0  0  0
    1.3365   -2.3802   27.3796 N   0  0  0  0  0  0  0  0  0  0  0  0
    0.3472   -2.9431   28.2652 C   0  0  0  0  0  0  0  0  0  0  0  0
   -0.0237   -1.9699   29.4005 C   0  0  1  0  0  0  0  0  0  0  0  0
   -0.2999   -0.5182   28.9991 C   0  0  0  0  0  0  0  0  0  0  0  0
    0.9378    0.2597   28.6107 C   0  0  0  0  0  0  0  0  0  0  0  0
    2.1023   -0.0592   29.0838 N   0  0  0  0  0  0  0  0  0  0  0  0
    3.1673    0.7001   28.6743 C   0  0  0  0  0  0  0  0  0  0  0  0
    3.0957    1.7204   27.8156 C   0  0  0  0  0  0  0  0  0  0  0  0
    1.7719    2.0609   27.2804 C   0  0  0  0  0  0  0  0  0  0  0  0
    1.6216    2.9300   26.4304 O   0  0  0  0  0  0  0  0  0  0  0  0
    0.7368    1.3266   27.7798 N   0  0  0  0  0  0  0  0  0  0  0  0
   -1.2591   -2.4901   30.0202 N   0  0  0  0  0  0  0  0  0  0  0  0
   -1.1745   -2.9259   31.6291 S   0  0  0  0  0  0  0  0  0  0  0  0
    0.0887   -3.5794   31.8677 O   0  0  0  0  0  0  0  0  0  0  0  0
   -2.4325   -3.5964   31.8687 O   0  0  0  0  0  0  0  0  0  0  0  0
   -1.2523   -1.4384   32.5472 C   0  0  0  0  0  0  0  0  0  0  0  0
   -2.2967   -0.6229   32.9387 C   0  0  0  0  0  0  0  0  0  0  0  0
   -1.8022    0.4737   33.6956 C   0  0  0  0  0  0  0  0  0  0  0  0
   -0.4828    0.5651   33.8305 N   0  0  0  0  0  0  0  0  0  0  0  0
    0.2085   -0.7559   33.0917 S   0  0  0  0  0  0  0  0  0  0  0  0
    3.3786   -2.7211   26.2835 C   0  0  0  0  0  0  0  0  0  0  0  0
    3.3357   -1.5237   25.6313 O   0  0  0  0  0  0  0  0  0  0  0  0
    4.6410   -1.2112   25.4614 C   0  0  0  0  0  0  0  0  0  0  0  0
    5.5021   -2.0739   25.9548 N   0  0  0  0  0  0  0  0  0  0  0  0
    4.6929   -3.0405   26.5021 C   0  0  0  0  0  0  0  0  0  0  0  0
    5.1446   -4.2377   27.1772 C   0  0  0  0  0  0  0  0  0  0  0  0
    4.7291   -4.5355   28.2265 O   0  0  0  0  0  0  0  0  0  0  0  0
    6.1145   -4.9800   26.2403 N   0  0  0  0  0  0  0  0  0  0  0  0
    6.6712   -6.2130   26.3448 C   0  0  0  0  0  0  0  0  0  0  0  0
    6.6696   -7.0104   25.2679 C   0  0  0  0  0  0  0  0  0  0  0  0
    7.1150   -8.3020   25.3152 N   0  0  0  0  0  0  0  0  0  0  0  0
    7.6400   -8.8970   26.4356 C   0  0  0  0  0  0  0  0  0  0  0  0
    8.0164  -10.0628   26.4395 O   0  0  0  0  0  0  0  0  0  0  0  0
    7.7341   -8.0340   27.6447 C   0  0  0  0  0  0  0  0  0  0  0  0
    8.3566   -8.5323   28.7925 C   0  0  0  0  0  0  0  0  0  0  0  0
    8.4880   -7.7286   29.9243 C   0  0  0  0  0  0  0  0  0  0  0  0
    8.0131   -6.4237   29.9037 C   0  0  0  0  0  0  0  0  0  0  0  0
    7.4142   -5.9195   28.7484 C   0  0  0  0  0  0  0  0  0  0  0  0
    7.2398   -6.7199   27.6074 C   0  0  0  0  0  0  0  0  0  0  0  0
  2  1  1  6
  2  3  1  0
  3  4  1  0
  5  4  1  6
  5  6  1  0
  6  7  1  0
  7  8  2  0
  8  9  1  0
  9 10  2  0
 10 11  1  0
 11 12  2  0
 11 13  1  0
  5 14  1  0
 14 15  1  0
 15 16  2  0
 15 17  2  0
 15 18  1  0
 18 19  2  0
 19 20  1  0
 20 21  2  0
 21 22  1  0
  2 23  1  0
 23 24  1  0
 24 25  1  0
 25 26  2  0
 26 27  1  0
 27 28  1  0
 28 29  2  0
 28 30  1  0
 30 31  1  0
 31 32  2  0
 32 33  1  0
 33 34  1  0
 34 35  2  0
 34 36  1  0
 36 37  2  0
 37 38  1  0
 38 39  2  0
 39 40  1  0
 40 41  2  0
 13  7  1  0
 22 18  1  0
 27 23  2  0
 41 31  1  0
 41 36  1  0
M  END
>  <tags>  (134) 
{'openbind_d68ev3c_c1_fragmenstein', 'fragmenstein_placed'}

>  <fragmenstein_mode>  (134) 
expansion

>  <smiles>  (134) 
C4383-P154

>  <alias>  (134) 
N[C@H](NC[C@@H](Cc1nccc(=O)[nH]1)NS(=O)(=O)c1ccns1)c1ocnc1C(=O)Nc1c[nH]c(=O)c2ccccc12

>  <fragmenstein_runtime>  (134) 
8.793678

>  <inchikey>  (134) 
WBVHPSFFKXXELN-UHFFFAOYSA-N

>  <HIPPO Compound ID>  (134) 
4383

>  <scratch_subdir>  (134) 
/opt/xchem-fragalysis-2/maxwin/BulkDock/SCRATCH/505735/C4383-P154

>  <fragmenstein_outcome>  (134) 
acceptable

>  <fragmenstein_error>  (134) 


>  <ref_pdb>  (134) 
135

>  <HIPPO Pose ID>  (134) 
1925

>  <Energy>  (134) 
-98.231914

$$$$
NCc1ocnc1C(=NCCC[C@@H](CNS(=O)(=O)c1ccc(N)nc1)c1nccc(O)n1)Nc1c[nH]c(=O)c2ccccc12
     RDKit          3D

 44 48  0  0  0  0  0  0  0  0999 V2000
    1.4210   -3.5377   25.4325 N   0  0  0  0  0  0  0  0  0  0  0  0
    1.8458   -2.6243   26.4848 C   0  0  0  0  0  0  0  0  0  0  0  0
    3.2525   -2.2194   26.3027 C   0  0  0  0  0  0  0  0  0  0  0  0
    3.5278   -0.8988   26.1116 O   0  0  0  0  0  0  0  0  0  0  0  0
    4.8798   -0.8768   25.9878 C   0  0  0  0  0  0  0  0  0  0  0  0
    5.4953   -2.0300   26.1205 N   0  0  0  0  0  0  0  0  0  0  0  0
    4.4527   -2.9030   26.3122 C   0  0  0  0  0  0  0  0  0  0  0  0
    4.6000   -4.3144   26.5533 C   0  0  0  0  0  0  0  0  0  0  0  0
    3.6595   -4.8855   27.0317 N   0  0  0  0  0  0  0  0  0  0  0  0
    3.4876   -6.2374   27.4030 C   0  0  0  0  0  0  0  0  0  0  0  0
    2.9140   -6.2627   28.8181 C   0  0  0  0  0  0  0  0  0  0  0  0
    2.0551   -5.1070   29.2793 C   0  0  0  0  0  0  0  0  0  0  0  0
    1.6402   -5.0266   30.7680 C   0  0  1  0  0  0  0  0  0  0  0  0
    0.6703   -3.8392   30.7709 C   0  0  0  0  0  0  0  0  0  0  0  0
    0.3333   -3.3220   32.1121 N   0  0  0  0  0  0  0  0  0  0  0  0
   -1.1780   -2.5767   32.2106 S   0  0  0  0  0  0  0  0  0  0  0  0
   -1.2928   -1.9827   33.5206 O   0  0  0  0  0  0  0  0  0  0  0  0
   -2.1640   -3.5101   31.7028 O   0  0  0  0  0  0  0  0  0  0  0  0
   -0.9606   -1.2815   31.0449 C   0  0  0  0  0  0  0  0  0  0  0  0
   -0.2720   -0.1246   31.3856 C   0  0  0  0  0  0  0  0  0  0  0  0
   -0.0183    0.8149   30.3903 C   0  0  0  0  0  0  0  0  0  0  0  0
   -0.4520    0.5648   29.0936 C   0  0  0  0  0  0  0  0  0  0  0  0
   -0.2365    1.5150   28.0922 N   0  0  0  0  0  0  0  0  0  0  0  0
   -1.1266   -0.5529   28.7697 N   0  0  0  0  0  0  0  0  0  0  0  0
   -1.3776   -1.4555   29.7422 C   0  0  0  0  0  0  0  0  0  0  0  0
    0.9122   -6.1424   31.4907 C   0  0  0  0  0  0  0  0  0  0  0  0
    0.8153   -5.9640   32.8364 N   0  0  0  0  0  0  0  0  0  0  0  0
   -0.0928   -6.6968   33.5085 C   0  0  0  0  0  0  0  0  0  0  0  0
   -0.8786   -7.6252   32.8952 C   0  0  0  0  0  0  0  0  0  0  0  0
   -0.6308   -7.7856   31.5592 C   0  0  0  0  0  0  0  0  0  0  0  0
   -1.2196   -8.8253   30.9123 O   0  0  0  0  0  0  0  0  0  0  0  0
    0.2311   -7.0753   30.8128 N   0  0  0  0  0  0  0  0  0  0  0  0
    6.0244   -4.8333   26.1941 N   0  0  0  0  0  0  0  0  0  0  0  0
    6.5488   -6.0880   26.2441 C   0  0  0  0  0  0  0  0  0  0  0  0
    6.4287   -6.9692   25.2425 C   0  0  0  0  0  0  0  0  0  0  0  0
    6.8996   -8.2503   25.3246 N   0  0  0  0  0  0  0  0  0  0  0  0
    7.5437   -8.7726   26.4175 C   0  0  0  0  0  0  0  0  0  0  0  0
    7.9641   -9.9228   26.4470 O   0  0  0  0  0  0  0  0  0  0  0  0
    7.6776   -7.8598   27.5838 C   0  0  0  0  0  0  0  0  0  0  0  0
    8.2651   -8.3311   28.7620 C   0  0  0  0  0  0  0  0  0  0  0  0
    8.3526   -7.4995   29.8776 C   0  0  0  0  0  0  0  0  0  0  0  0
    7.8584   -6.1987   29.8145 C   0  0  0  0  0  0  0  0  0  0  0  0
    7.2831   -5.7234   28.6332 C   0  0  0  0  0  0  0  0  0  0  0  0
    7.1845   -6.5468   27.4993 C   0  0  0  0  0  0  0  0  0  0  0  0
  1  2  1  0
  2  3  1  0
  3  4  1  0
  4  5  1  0
  5  6  2  0
  6  7  1  0
  7  8  1  0
  8  9  2  3
  9 10  1  0
 10 11  1  0
 11 12  1  0
 13 12  1  6
 13 14  1  0
 14 15  1  0
 15 16  1  0
 16 17  2  0
 16 18  2  0
 16 19  1  0
 19 20  2  0
 20 21  1  0
 21 22  2  0
 22 23  1  0
 22 24  1  0
 24 25  2  0
 13 26  1  0
 26 27  2  0
 27 28  1  0
 28 29  2  0
 29 30  1  0
 30 31  1  0
 30 32  2  0
  8 33  1  0
 33 34  1  0
 34 35  2  0
 35 36  1  0
 36 37  1  0
 37 38  2  0
 37 39  1  0
 39 40  2  0
 40 41  1  0
 41 42  2  0
 42 43  1  0
 43 44  2  0
  7  3  2  0
 25 19  1  0
 32 26  1  0
 44 34  1  0
 44 39  1  0
M  END
>  <tags>  (135) 
{'openbind_d68ev3c_c1_fragmenstein', 'fragmenstein_placed'}

>  <fragmenstein_mode>  (135) 
expansion

>  <smiles>  (135) 
C4410-P154

>  <alias>  (135) 
NCc1ocnc1C(=NCCC[C@@H](CNS(=O)(=O)c1ccc(N)nc1)c1nccc(O)n1)Nc1c[nH]c(=O)c2ccccc12

>  <fragmenstein_runtime>  (135) 
10.159188

>  <inchikey>  (135) 
ACYDIHQXUQNKTJ-UHFFFAOYSA-N

>  <HIPPO Compound ID>  (135) 
4410

>  <scratch_subdir>  (135) 
/opt/xchem-fragalysis-2/maxwin/BulkDock/SCRATCH/505735/C4410-P154

>  <fragmenstein_outcome>  (135) 
acceptable

>  <fragmenstein_error>  (135) 


>  <ref_pdb>  (135) 
135

>  <HIPPO Pose ID>  (135) 
1957

>  <Energy>  (135) 
-43.532432

$$$$
Cc1cc(O)nc(CCNS(=O)(=O)N2CCO[C@H](CCNc3nc(C(=O)Nc4c[nH]c(=O)c5ccccc45)c(CN)o3)C2)n1
     RDKit          3D

 44 48  0  0  0  0  0  0  0  0999 V2000
    6.9065   -1.3709   32.4373 C   0  0  0  0  0  0  0  0  0  0  0  0
    5.8570   -0.6225   31.6708 C   0  0  0  0  0  0  0  0  0  0  0  0
    6.0496    0.7030   31.3442 C   0  0  0  0  0  0  0  0  0  0  0  0
    5.0185    1.2980   30.6631 C   0  0  0  0  0  0  0  0  0  0  0  0
    5.0918    2.6003   30.2617 O   0  0  0  0  0  0  0  0  0  0  0  0
    3.8785    0.6830   30.3403 N   0  0  0  0  0  0  0  0  0  0  0  0
    3.7686   -0.6086   30.6907 C   0  0  0  0  0  0  0  0  0  0  0  0
    2.4365   -1.2861   30.4909 C   0  0  0  0  0  0  0  0  0  0  0  0
    1.8456   -1.0416   29.1043 C   0  0  0  0  0  0  0  0  0  0  0  0
    0.3766   -1.1538   29.0975 N   0  0  0  0  0  0  0  0  0  0  0  0
   -0.5341    0.1624   29.5839 S   0  0  0  0  0  0  0  0  0  0  0  0
   -1.8977   -0.3039   29.6370 O   0  0  0  0  0  0  0  0  0  0  0  0
    0.0847    0.7761   30.7339 O   0  0  0  0  0  0  0  0  0  0  0  0
   -0.3196    1.1552   28.2510 N   0  0  0  0  0  0  0  0  0  0  0  0
   -1.5267    1.4170   27.4219 C   0  0  0  0  0  0  0  0  0  0  0  0
   -1.3716    2.6542   26.5395 C   0  0  0  0  0  0  0  0  0  0  0  0
   -0.0491    2.7247   25.9942 O   0  0  0  0  0  0  0  0  0  0  0  0
    0.9368    2.9699   27.0270 C   0  0  2  0  0  0  0  0  0  0  0  0
    2.3706    2.8185   26.4124 C   0  0  0  0  0  0  0  0  0  0  0  0
    3.3833    1.7394   26.8652 C   0  0  0  0  0  0  0  0  0  0  0  0
    3.2567    0.5069   26.1069 N   0  0  0  0  0  0  0  0  0  0  0  0
    3.9378   -0.6146   26.4151 C   0  0  0  0  0  0  0  0  0  0  0  0
    3.6882   -1.8293   26.0007 N   0  0  0  0  0  0  0  0  0  0  0  0
    4.6600   -2.6428   26.5815 C   0  0  0  0  0  0  0  0  0  0  0  0
    4.6419   -4.1074   26.3213 C   0  0  0  0  0  0  0  0  0  0  0  0
    3.8108   -4.4767   25.5889 O   0  0  0  0  0  0  0  0  0  0  0  0
    5.8029   -4.8823   26.9946 N   0  0  0  0  0  0  0  0  0  0  0  0
    6.2165   -6.1848   26.8383 C   0  0  0  0  0  0  0  0  0  0  0  0
    5.9435   -6.8753   25.7155 C   0  0  0  0  0  0  0  0  0  0  0  0
    6.4454   -8.1300   25.4644 N   0  0  0  0  0  0  0  0  0  0  0  0
    7.2749   -8.8175   26.3183 C   0  0  0  0  0  0  0  0  0  0  0  0
    7.7588   -9.9104   26.0447 O   0  0  0  0  0  0  0  0  0  0  0  0
    7.5354   -8.1593   27.6254 C   0  0  0  0  0  0  0  0  0  0  0  0
    8.2392   -8.8662   28.6104 C   0  0  0  0  0  0  0  0  0  0  0  0
    8.4539   -8.2892   29.8584 C   0  0  0  0  0  0  0  0  0  0  0  0
    7.9649   -7.0137   30.1220 C   0  0  0  0  0  0  0  0  0  0  0  0
    7.2492   -6.3166   29.1432 C   0  0  0  0  0  0  0  0  0  0  0  0
    7.0301   -6.8666   27.8724 C   0  0  0  0  0  0  0  0  0  0  0  0
    5.5309   -1.8131   27.2608 C   0  0  0  0  0  0  0  0  0  0  0  0
    6.8012   -1.9644   27.9846 C   0  0  0  0  0  0  0  0  0  0  0  0
    6.6181   -2.8671   29.1119 N   0  0  0  0  0  0  0  0  0  0  0  0
    5.0393   -0.5301   27.2057 O   0  0  0  0  0  0  0  0  0  0  0  0
    0.6034    2.3088   28.3867 C   0  0  0  0  0  0  0  0  0  0  0  0
    4.7390   -1.3000   31.3274 N   0  0  0  0  0  0  0  0  0  0  0  0
  1  2  1  0
  2  3  2  0
  3  4  1  0
  4  5  1  0
  4  6  2  0
  6  7  1  0
  7  8  1  0
  8  9  1  0
  9 10  1  0
 10 11  1  0
 11 12  2  0
 11 13  2  0
 11 14  1  0
 14 15  1  0
 15 16  1  0
 16 17  1  0
 17 18  1  0
 18 19  1  6
 19 20  1  0
 20 21  1  0
 21 22  1  0
 22 23  2  0
 23 24  1  0
 24 25  1  0
 25 26  2  0
 25 27  1  0
 27 28  1  0
 28 29  2  0
 29 30  1  0
 30 31  1  0
 31 32  2  0
 31 33  1  0
 33 34  2  0
 34 35  1  0
 35 36  2  0
 36 37  1  0
 37 38  2  0
 24 39  2  0
 39 40  1  0
 40 41  1  0
 39 42  1  0
 18 43  1  0
  7 44  2  0
 44  2  1  0
 43 14  1  0
 42 22  1  0
 38 28  1  0
 38 33  1  0
M  END
>  <tags>  (136) 
{'openbind_d68ev3c_c1_fragmenstein', 'fragmenstein_placed'}

>  <fragmenstein_mode>  (136) 
expansion

>  <smiles>  (136) 
C4412-P155

>  <alias>  (136) 
Cc1cc(O)nc(CCNS(=O)(=O)N2CCO[C@H](CCNc3nc(C(=O)Nc4c[nH]c(=O)c5ccccc45)c(CN)o3)C2)n1

>  <fragmenstein_runtime>  (136) 
8.889235

>  <inchikey>  (136) 
PPXHIRPMLNNBCT-UHFFFAOYSA-N

>  <HIPPO Compound ID>  (136) 
4412

>  <scratch_subdir>  (136) 
/opt/xchem-fragalysis-2/maxwin/BulkDock/SCRATCH/505735/C4412-P155

>  <fragmenstein_outcome>  (136) 
acceptable

>  <fragmenstein_error>  (136) 


>  <ref_pdb>  (136) 
135

>  <HIPPO Pose ID>  (136) 
1959

>  <Energy>  (136) 
-137.787971

$$$$
Cc1c(-c2cnccn2)c(CNS(=O)(=O)c2ccn(C)n2)cc2nnc(N)n12
     RDKit          3D

 28 31  0  0  0  0  0  0  0  0999 V2000
    0.4795   -5.4976   34.8933 C   0  0  0  0  0  0  0  0  0  0  0  0
    0.4065   -5.6416   33.3940 C   0  0  0  0  0  0  0  0  0  0  0  0
    1.0984   -4.8540   32.5148 C   0  0  0  0  0  0  0  0  0  0  0  0
    1.9717   -3.7536   32.9920 C   0  0  0  0  0  0  0  0  0  0  0  0
    1.4669   -2.5859   33.5550 C   0  0  0  0  0  0  0  0  0  0  0  0
    2.2590   -1.5497   33.9223 N   0  0  0  0  0  0  0  0  0  0  0  0
    3.5793   -1.7084   33.6776 C   0  0  0  0  0  0  0  0  0  0  0  0
    4.0895   -2.8581   33.1032 C   0  0  0  0  0  0  0  0  0  0  0  0
    3.3022   -3.9055   32.7513 N   0  0  0  0  0  0  0  0  0  0  0  0
    0.9877   -5.1395   31.0563 C   0  0  0  0  0  0  0  0  0  0  0  0
    1.8031   -4.3476   30.0478 C   0  0  0  0  0  0  0  0  0  0  0  0
    3.1930   -4.7899   30.1775 N   0  0  0  0  0  0  0  0  0  0  0  0
    4.2937   -4.1260   29.0913 S   0  0  0  0  0  0  0  0  0  0  0  0
    3.6933   -2.9729   28.4574 O   0  0  0  0  0  0  0  0  0  0  0  0
    5.5556   -4.0476   29.7975 O   0  0  0  0  0  0  0  0  0  0  0  0
    4.5951   -5.2523   27.7862 C   0  0  0  0  0  0  0  0  0  0  0  0
    5.6037   -5.0526   26.8158 C   0  0  0  0  0  0  0  0  0  0  0  0
    5.5293   -6.1551   26.0005 C   0  0  0  0  0  0  0  0  0  0  0  0
    4.5100   -6.9184   26.4846 N   0  0  0  0  0  0  0  0  0  0  0  0
    4.0690   -8.1798   25.9406 C   0  0  0  0  0  0  0  0  0  0  0  0
    3.9258   -6.4109   27.5919 N   0  0  0  0  0  0  0  0  0  0  0  0
    0.1748   -6.1126   30.6109 C   0  0  0  0  0  0  0  0  0  0  0  0
   -0.5485   -6.9170   31.5064 C   0  0  0  0  0  0  0  0  0  0  0  0
   -1.3564   -7.9243   31.2795 N   0  0  0  0  0  0  0  0  0  0  0  0
   -1.7756   -8.3806   32.4908 N   0  0  0  0  0  0  0  0  0  0  0  0
   -1.2332   -7.6471   33.4395 C   0  0  0  0  0  0  0  0  0  0  0  0
   -1.4320   -7.8508   34.7634 N   0  0  0  0  0  0  0  0  0  0  0  0
   -0.4171   -6.6722   32.8676 N   0  0  0  0  0  0  0  0  0  0  0  0
  1  2  1  0
  2  3  2  0
  3  4  1  0
  4  5  2  0
  5  6  1  0
  6  7  2  0
  7  8  1  0
  8  9  2  0
  3 10  1  0
 10 11  1  0
 11 12  1  0
 12 13  1  0
 13 14  2  0
 13 15  2  0
 13 16  1  0
 16 17  1  0
 17 18  2  0
 18 19  1  0
 19 20  1  0
 19 21  1  0
 10 22  2  0
 22 23  1  0
 23 24  2  0
 24 25  1  0
 25 26  2  0
 26 27  1  0
 26 28  1  0
 28  2  1  0
  9  4  1  0
 21 16  2  0
 28 23  1  0
M  END
>  <tags>  (137) 
{'openbind_d68ev3c_c1_fragmenstein', 'fragmenstein_placed'}

>  <fragmenstein_mode>  (137) 
expansion

>  <smiles>  (137) 
C4446-P156

>  <alias>  (137) 
Cc1c(-c2cnccn2)c(CNS(=O)(=O)c2ccn(C)n2)cc2nnc(N)n12

>  <fragmenstein_runtime>  (137) 
4.063741

>  <inchikey>  (137) 
HCVUBEHKWLZQLZ-UHFFFAOYSA-N

>  <HIPPO Compound ID>  (137) 
4446

>  <scratch_subdir>  (137) 
/opt/xchem-fragalysis-2/maxwin/BulkDock/SCRATCH/505735/C4446-P156

>  <fragmenstein_outcome>  (137) 
acceptable

>  <fragmenstein_error>  (137) 


>  <ref_pdb>  (137) 
135

>  <HIPPO Pose ID>  (137) 
1973

>  <Energy>  (137) 
103.229894

$$$$
NCc1ocnc1C(=NCCNc1cc2nnc(N)n2cc1-c1cnccn1)Nc1c[nH]c(=O)c2ccccc12
     RDKit          3D

 40 45  0  0  0  0  0  0  0  0999 V2000
    4.1454    3.1285   30.6540 N   0  0  0  0  0  0  0  0  0  0  0  0
    4.7567    2.4950   31.8222 C   0  0  0  0  0  0  0  0  0  0  0  0
    5.5504    1.3182   31.4048 C   0  0  0  0  0  0  0  0  0  0  0  0
    6.8870    1.3623   31.7056 O   0  0  0  0  0  0  0  0  0  0  0  0
    7.3669    0.1704   31.2710 C   0  0  0  0  0  0  0  0  0  0  0  0
    6.4727   -0.6247   30.7402 N   0  0  0  0  0  0  0  0  0  0  0  0
    5.2875    0.1068   30.7807 C   0  0  0  0  0  0  0  0  0  0  0  0
    4.0172   -0.4336   30.2718 C   0  0  0  0  0  0  0  0  0  0  0  0
    3.9353   -1.6424   30.1644 N   0  0  0  0  0  0  0  0  0  0  0  0
    2.6854   -2.2620   29.7403 C   0  0  0  0  0  0  0  0  0  0  0  0
    2.7959   -3.7892   29.7089 C   0  0  0  0  0  0  0  0  0  0  0  0
    1.4656   -4.3841   29.8003 N   0  0  0  0  0  0  0  0  0  0  0  0
    0.9112   -5.1616   30.8094 C   0  0  0  0  0  0  0  0  0  0  0  0
    0.0152   -6.1076   30.4557 C   0  0  0  0  0  0  0  0  0  0  0  0
   -0.6067   -6.9475   31.3937 C   0  0  0  0  0  0  0  0  0  0  0  0
   -1.4367   -7.9498   31.2444 N   0  0  0  0  0  0  0  0  0  0  0  0
   -1.7664   -8.3782   32.4998 N   0  0  0  0  0  0  0  0  0  0  0  0
   -1.1369   -7.6399   33.3882 C   0  0  0  0  0  0  0  0  0  0  0  0
   -1.2071   -7.7709   34.7329 N   0  0  0  0  0  0  0  0  0  0  0  0
   -0.3526   -6.7149   32.7271 N   0  0  0  0  0  0  0  0  0  0  0  0
    0.5221   -5.7258   33.1650 C   0  0  0  0  0  0  0  0  0  0  0  0
    1.1701   -4.9471   32.2625 C   0  0  0  0  0  0  0  0  0  0  0  0
    1.9945   -3.8678   32.8237 C   0  0  0  0  0  0  0  0  0  0  0  0
    1.4293   -2.7131   33.3574 C   0  0  0  0  0  0  0  0  0  0  0  0
    2.1695   -1.6798   33.8365 N   0  0  0  0  0  0  0  0  0  0  0  0
    3.5040   -1.8274   33.7027 C   0  0  0  0  0  0  0  0  0  0  0  0
    4.0724   -2.9761   33.1823 C   0  0  0  0  0  0  0  0  0  0  0  0
    3.3360   -4.0378   32.7800 N   0  0  0  0  0  0  0  0  0  0  0  0
    2.9644    0.7048   29.9345 N   0  0  0  0  0  0  0  0  0  0  0  0
    1.6650    0.6198   29.5222 C   0  0  0  0  0  0  0  0  0  0  0  0
    1.3239    0.5074   28.2294 C   0  0  0  0  0  0  0  0  0  0  0  0
    0.0489    0.2424   27.8288 N   0  0  0  0  0  0  0  0  0  0  0  0
   -0.9972    0.0138   28.6759 C   0  0  0  0  0  0  0  0  0  0  0  0
   -2.1014   -0.2639   28.2384 O   0  0  0  0  0  0  0  0  0  0  0  0
   -0.7031    0.1207   30.1250 C   0  0  0  0  0  0  0  0  0  0  0  0
   -1.7039   -0.1492   31.0643 C   0  0  0  0  0  0  0  0  0  0  0  0
   -1.4444   -0.0113   32.4254 C   0  0  0  0  0  0  0  0  0  0  0  0
   -0.1866    0.4103   32.8442 C   0  0  0  0  0  0  0  0  0  0  0  0
    0.8263    0.6460   31.9082 C   0  0  0  0  0  0  0  0  0  0  0  0
    0.5915    0.4830   30.5355 C   0  0  0  0  0  0  0  0  0  0  0  0
  1  2  1  0
  2  3  1  0
  3  4  1  0
  4  5  1  0
  5  6  2  0
  6  7  1  0
  7  8  1  0
  8  9  2  3
  9 10  1  0
 10 11  1  0
 11 12  1  0
 12 13  1  0
 13 14  2  0
 14 15  1  0
 15 16  2  0
 16 17  1  0
 17 18  2  0
 18 19  1  0
 18 20  1  0
 20 21  1  0
 21 22  2  0
 22 23  1  0
 23 24  2  0
 24 25  1  0
 25 26  2  0
 26 27  1  0
 27 28  2  0
  8 29  1  0
 29 30  1  0
 30 31  2  0
 31 32  1  0
 32 33  1  0
 33 34  2  0
 33 35  1  0
 35 36  2  0
 36 37  1  0
 37 38  2  0
 38 39  1  0
 39 40  2  0
  7  3  2  0
 22 13  1  0
 28 23  1  0
 40 30  1  0
 20 15  1  0
 40 35  1  0
M  END
>  <tags>  (138) 
{'openbind_d68ev3c_c1_fragmenstein', 'fragmenstein_placed'}

>  <fragmenstein_mode>  (138) 
expansion

>  <smiles>  (138) 
C4458-P157

>  <alias>  (138) 
NCc1ocnc1C(=NCCNc1cc2nnc(N)n2cc1-c1cnccn1)Nc1c[nH]c(=O)c2ccccc12

>  <fragmenstein_runtime>  (138) 
7.089518

>  <inchikey>  (138) 
UMGAPARYCDRRNG-UHFFFAOYSA-N

>  <HIPPO Compound ID>  (138) 
4458

>  <scratch_subdir>  (138) 
/opt/xchem-fragalysis-2/maxwin/BulkDock/SCRATCH/505735/C4458-P157

>  <fragmenstein_outcome>  (138) 
acceptable

>  <fragmenstein_error>  (138) 


>  <ref_pdb>  (138) 
135

>  <HIPPO Pose ID>  (138) 
1985

>  <Energy>  (138) 
189.959398

$$$$
O=C(Nc1cn[nH]c1)Nc1cc(CCNS(=O)(=O)c2ccc(O)cc2)cc2nncn12
     RDKit          3D

 31 34  0  0  0  0  0  0  0  0999 V2000
   -0.5273   -8.0246   36.1834 O   0  0  0  0  0  0  0  0  0  0  0  0
   -0.0984   -6.9788   36.3049 C   0  0  0  0  0  0  0  0  0  0  0  0
    0.2612   -6.1826   37.5947 N   0  0  0  0  0  0  0  0  0  0  0  0
    0.2397   -6.5648   38.8980 C   0  0  0  0  0  0  0  0  0  0  0  0
    0.1699   -7.8637   39.4234 C   0  0  0  0  0  0  0  0  0  0  0  0
    0.2131   -7.8745   40.7579 N   0  0  0  0  0  0  0  0  0  0  0  0
    0.2679   -6.5722   41.0759 N   0  0  0  0  0  0  0  0  0  0  0  0
    0.3328   -5.7446   39.9897 C   0  0  0  0  0  0  0  0  0  0  0  0
    0.3940   -5.9696   35.2385 N   0  0  0  0  0  0  0  0  0  0  0  0
    0.3583   -6.0358   33.8727 C   0  0  0  0  0  0  0  0  0  0  0  0
    1.2185   -5.2052   33.2569 C   0  0  0  0  0  0  0  0  0  0  0  0
    1.1698   -4.9855   31.8226 C   0  0  0  0  0  0  0  0  0  0  0  0
    1.8922   -3.7546   31.3183 C   0  0  0  0  0  0  0  0  0  0  0  0
    1.7225   -2.5185   32.2301 C   0  0  0  0  0  0  0  0  0  0  0  0
    0.3280   -2.3658   32.6413 N   0  0  0  0  0  0  0  0  0  0  0  0
   -0.4521   -0.9092   32.5017 S   0  0  0  0  0  0  0  0  0  0  0  0
    0.3880    0.0906   33.1218 O   0  0  0  0  0  0  0  0  0  0  0  0
   -1.8222   -1.1216   32.9051 O   0  0  0  0  0  0  0  0  0  0  0  0
   -0.4249   -0.6878   30.7542 C   0  0  0  0  0  0  0  0  0  0  0  0
    0.2864    0.3818   30.2082 C   0  0  0  0  0  0  0  0  0  0  0  0
    0.2849    0.5567   28.8304 C   0  0  0  0  0  0  0  0  0  0  0  0
   -0.4137   -0.3388   28.0292 C   0  0  0  0  0  0  0  0  0  0  0  0
   -0.4859   -0.0706   26.7004 O   0  0  0  0  0  0  0  0  0  0  0  0
   -1.0730   -1.4383   28.5661 C   0  0  0  0  0  0  0  0  0  0  0  0
   -1.0952   -1.6094   29.9443 C   0  0  0  0  0  0  0  0  0  0  0  0
    0.3886   -5.7655   31.0513 C   0  0  0  0  0  0  0  0  0  0  0  0
   -0.4203   -6.7651   31.6565 C   0  0  0  0  0  0  0  0  0  0  0  0
   -1.2317   -7.6494   31.1240 N   0  0  0  0  0  0  0  0  0  0  0  0
   -1.8694   -8.2839   32.1519 N   0  0  0  0  0  0  0  0  0  0  0  0
   -1.4305   -7.7798   33.2884 C   0  0  0  0  0  0  0  0  0  0  0  0
   -0.4635   -6.8407   33.0553 N   0  0  0  0  0  0  0  0  0  0  0  0
  1  2  2  0
  2  3  1  0
  3  4  1  0
  4  5  1  0
  5  6  2  0
  6  7  1  0
  7  8  1  0
  2  9  1  0
  9 10  1  0
 10 11  2  0
 11 12  1  0
 12 13  1  0
 13 14  1  0
 14 15  1  0
 15 16  1  0
 16 17  2  0
 16 18  2  0
 16 19  1  0
 19 20  2  0
 20 21  1  0
 21 22  2  0
 22 23  1  0
 22 24  1  0
 24 25  2  0
 12 26  2  0
 26 27  1  0
 27 28  2  0
 28 29  1  0
 29 30  2  0
 30 31  1  0
  8  4  2  0
 31 10  1  0
 25 19  1  0
 31 27  1  0
M  END
>  <tags>  (139) 
{'openbind_d68ev3c_c1_fragmenstein', 'fragmenstein_placed'}

>  <fragmenstein_mode>  (139) 
expansion

>  <smiles>  (139) 
C4489-P158

>  <alias>  (139) 
O=C(Nc1cn[nH]c1)Nc1cc(CCNS(=O)(=O)c2ccc(O)cc2)cc2nncn12

>  <fragmenstein_runtime>  (139) 
7.311182

>  <inchikey>  (139) 
POUCBJXKPZLTEG-UHFFFAOYSA-N

>  <HIPPO Compound ID>  (139) 
4489

>  <scratch_subdir>  (139) 
/opt/xchem-fragalysis-2/maxwin/BulkDock/SCRATCH/505735/C4489-P158

>  <fragmenstein_outcome>  (139) 
acceptable

>  <fragmenstein_error>  (139) 


>  <ref_pdb>  (139) 
135

>  <HIPPO Pose ID>  (139) 
2015

>  <Energy>  (139) 
-6.660034

$$$$
Nc1ccc(S(=O)(=O)NCCc2cc(NC(=O)Nc3cn[nH]c3)n3cnnc3c2)cn1
     RDKit          3D

 31 34  0  0  0  0  0  0  0  0999 V2000
   -2.3131    2.6587   26.7307 N   0  0  0  0  0  0  0  0  0  0  0  0
   -1.7428    1.6177   27.4498 C   0  0  0  0  0  0  0  0  0  0  0  0
   -0.8501    1.8598   28.4832 C   0  0  0  0  0  0  0  0  0  0  0  0
   -0.3268    0.7790   29.1935 C   0  0  0  0  0  0  0  0  0  0  0  0
   -0.7115   -0.5073   28.8280 C   0  0  0  0  0  0  0  0  0  0  0  0
   -0.1554   -1.9083   29.7083 S   0  0  0  0  0  0  0  0  0  0  0  0
   -0.3988   -3.1014   28.9352 O   0  0  0  0  0  0  0  0  0  0  0  0
   -0.6048   -1.7749   31.0764 O   0  0  0  0  0  0  0  0  0  0  0  0
    1.5288   -1.7132   29.6922 N   0  0  0  0  0  0  0  0  0  0  0  0
    2.3174   -2.8709   30.1791 C   0  0  0  0  0  0  0  0  0  0  0  0
    1.9916   -3.2912   31.6160 C   0  0  0  0  0  0  0  0  0  0  0  0
    1.0217   -4.4361   31.8986 C   0  0  0  0  0  0  0  0  0  0  0  0
    0.7164   -4.5675   33.3297 C   0  0  0  0  0  0  0  0  0  0  0  0
    0.0705   -5.6526   33.7875 C   0  0  0  0  0  0  0  0  0  0  0  0
    0.0245   -5.8861   35.1252 N   0  0  0  0  0  0  0  0  0  0  0  0
    0.4917   -7.1220   35.9490 C   0  0  0  0  0  0  0  0  0  0  0  0
    0.9031   -8.1265   35.6000 O   0  0  0  0  0  0  0  0  0  0  0  0
    0.2629   -6.5744   37.3894 N   0  0  0  0  0  0  0  0  0  0  0  0
    0.5773   -7.1156   38.5976 C   0  0  0  0  0  0  0  0  0  0  0  0
    1.3636   -8.2482   38.8769 C   0  0  0  0  0  0  0  0  0  0  0  0
    1.5086   -8.4458   40.1883 N   0  0  0  0  0  0  0  0  0  0  0  0
    0.7337   -7.4999   40.7375 N   0  0  0  0  0  0  0  0  0  0  0  0
    0.1906   -6.6401   39.8228 C   0  0  0  0  0  0  0  0  0  0  0  0
   -0.4261   -6.5754   32.8605 N   0  0  0  0  0  0  0  0  0  0  0  0
   -1.1889   -7.7037   33.0115 C   0  0  0  0  0  0  0  0  0  0  0  0
   -1.4978   -8.2062   31.8359 N   0  0  0  0  0  0  0  0  0  0  0  0
   -0.9181   -7.4070   30.8762 N   0  0  0  0  0  0  0  0  0  0  0  0
   -0.2795   -6.4294   31.4899 C   0  0  0  0  0  0  0  0  0  0  0  0
    0.5080   -5.3326   31.0218 C   0  0  0  0  0  0  0  0  0  0  0  0
   -1.5763   -0.6664   27.7716 C   0  0  0  0  0  0  0  0  0  0  0  0
   -2.0828    0.3798   27.0751 N   0  0  0  0  0  0  0  0  0  0  0  0
  1  2  1  0
  2  3  2  0
  3  4  1  0
  4  5  2  0
  5  6  1  0
  6  7  2  0
  6  8  2  0
  6  9  1  0
  9 10  1  0
 10 11  1  0
 11 12  1  0
 12 13  1  0
 13 14  2  0
 14 15  1  0
 15 16  1  0
 16 17  2  0
 16 18  1  0
 18 19  1  0
 19 20  1  0
 20 21  2  0
 21 22  1  0
 22 23  1  0
 14 24  1  0
 24 25  1  0
 25 26  2  0
 26 27  1  0
 27 28  2  0
 28 29  1  0
  5 30  1  0
 30 31  2  0
 31  2  1  0
 29 12  2  0
 23 19  2  0
 28 24  1  0
M  END
>  <tags>  (140) 
{'openbind_d68ev3c_c1_fragmenstein', 'fragmenstein_placed'}

>  <fragmenstein_mode>  (140) 
expansion

>  <smiles>  (140) 
C4495-P159

>  <alias>  (140) 
Nc1ccc(S(=O)(=O)NCCc2cc(NC(=O)Nc3cn[nH]c3)n3cnnc3c2)cn1

>  <fragmenstein_runtime>  (140) 
8.000932

>  <inchikey>  (140) 
VUKNEHXBXKHFEF-UHFFFAOYSA-N

>  <HIPPO Compound ID>  (140) 
4495

>  <scratch_subdir>  (140) 
/opt/xchem-fragalysis-2/maxwin/BulkDock/SCRATCH/505735/C4495-P159

>  <fragmenstein_outcome>  (140) 
acceptable

>  <fragmenstein_error>  (140) 


>  <ref_pdb>  (140) 
135

>  <HIPPO Pose ID>  (140) 
2027

>  <Energy>  (140) 
-55.050182

$$$$
C=CCn1c(-c2cccnc2)nc(O)c1[S@@H]1Cc2nnc3cccc1n23
     RDKit          3D

 26 30  0  0  0  0  0  0  0  0999 V2000
    2.7178   -1.5652   30.2427 C   0  0  0  0  0  0  0  0  0  0  0  0
    2.2019   -2.1865   29.1739 C   0  0  0  0  0  0  0  0  0  0  0  0
    0.8827   -2.8952   29.0585 C   0  0  0  0  0  0  0  0  0  0  0  0
   -0.0275   -2.7386   30.1855 N   0  0  0  0  0  0  0  0  0  0  0  0
   -1.0383   -1.7954   30.2591 C   0  0  0  0  0  0  0  0  0  0  0  0
   -1.2403   -0.7358   29.2827 C   0  0  0  0  0  0  0  0  0  0  0  0
   -0.6071    0.4980   29.4434 C   0  0  0  0  0  0  0  0  0  0  0  0
   -0.8107    1.5067   28.5054 C   0  0  0  0  0  0  0  0  0  0  0  0
   -1.6639    1.2554   27.4463 C   0  0  0  0  0  0  0  0  0  0  0  0
   -2.2739    0.0711   27.2497 N   0  0  0  0  0  0  0  0  0  0  0  0
   -2.0474   -0.9020   28.1664 C   0  0  0  0  0  0  0  0  0  0  0  0
   -1.7265   -1.9394   31.3765 N   0  0  0  0  0  0  0  0  0  0  0  0
   -1.1024   -2.9362   32.0426 C   0  0  0  0  0  0  0  0  0  0  0  0
   -1.4437   -3.3519   33.2559 O   0  0  0  0  0  0  0  0  0  0  0  0
   -0.0698   -3.5065   31.3359 C   0  0  0  0  0  0  0  0  0  0  0  0
    0.9686   -4.8818   31.6595 S   0  0  2  0  0  4  0  0  0  0  0  0
    0.3930   -6.1047   30.4088 C   0  0  0  0  0  0  0  0  0  0  0  0
   -0.3872   -7.0571   31.2294 C   0  0  0  0  0  0  0  0  0  0  0  0
   -1.1671   -8.0969   31.0446 N   0  0  0  0  0  0  0  0  0  0  0  0
   -1.5702   -8.5274   32.3299 N   0  0  0  0  0  0  0  0  0  0  0  0
   -1.0207   -7.7280   33.2304 C   0  0  0  0  0  0  0  0  0  0  0  0
   -0.9437   -7.5822   34.6473 C   0  0  0  0  0  0  0  0  0  0  0  0
   -0.2260   -6.5490   35.1686 C   0  0  0  0  0  0  0  0  0  0  0  0
    0.4763   -5.5519   34.3243 C   0  0  0  0  0  0  0  0  0  0  0  0
    0.3817   -5.7412   33.0071 C   0  0  0  0  0  0  0  0  0  0  0  0
   -0.3247   -6.7988   32.5450 N   0  0  0  0  0  0  0  0  0  0  0  0
  1  2  2  0
  2  3  1  0
  3  4  1  0
  4  5  1  0
  5  6  1  0
  6  7  2  0
  7  8  1  0
  8  9  2  0
  9 10  1  0
 10 11  2  0
  5 12  2  0
 12 13  1  0
 13 14  1  0
 13 15  2  0
 16 15  1  6
 16 17  1  0
 17 18  1  0
 18 19  2  0
 19 20  1  0
 20 21  2  0
 21 22  1  0
 22 23  2  0
 23 24  1  0
 24 25  2  0
 25 26  1  0
 15  4  1  0
 25 16  1  0
 11  6  1  0
 26 18  1  0
 26 21  1  0
M  END
>  <tags>  (141) 
{'openbind_d68ev3c_c1_fragmenstein', 'fragmenstein_placed'}

>  <fragmenstein_mode>  (141) 
expansion

>  <smiles>  (141) 
C4547-P162

>  <alias>  (141) 
C=CCn1c(-c2cccnc2)nc(O)c1[S@@H]1Cc2nnc3cccc1n23

>  <fragmenstein_runtime>  (141) 
1.406898

>  <inchikey>  (141) 
QQWLMGGFHQKROE-UHFFFAOYSA-N

>  <HIPPO Compound ID>  (141) 
4547

>  <scratch_subdir>  (141) 
/opt/xchem-fragalysis-2/maxwin/BulkDock/SCRATCH/505735/C4547-P162

>  <fragmenstein_outcome>  (141) 
acceptable

>  <fragmenstein_error>  (141) 


>  <ref_pdb>  (141) 
135

>  <HIPPO Pose ID>  (141) 
2065

>  <Energy>  (141) 
72.402251

$$$$
Cc1ccc(F)cc1NC(=O)c1cc(O)nc(CCNS(=O)(=O)c2cscn2)n1
     RDKit          3D

 29 31  0  0  0  0  0  0  0  0999 V2000
    2.7537   -3.4940   34.9780 C   0  0  0  0  0  0  0  0  0  0  0  0
    1.9924   -3.5107   36.2779 C   0  0  0  0  0  0  0  0  0  0  0  0
    2.4312   -2.7067   37.3382 C   0  0  0  0  0  0  0  0  0  0  0  0
    1.7781   -2.7498   38.5683 C   0  0  0  0  0  0  0  0  0  0  0  0
    0.6881   -3.5941   38.7381 C   0  0  0  0  0  0  0  0  0  0  0  0
    0.0657   -3.6330   39.9228 F   0  0  0  0  0  0  0  0  0  0  0  0
    0.2272   -4.3950   37.7056 C   0  0  0  0  0  0  0  0  0  0  0  0
    0.8770   -4.3503   36.4773 C   0  0  0  0  0  0  0  0  0  0  0  0
    0.4325   -5.1131   35.4106 N   0  0  0  0  0  0  0  0  0  0  0  0
   -0.5655   -6.2862   35.3656 C   0  0  0  0  0  0  0  0  0  0  0  0
   -1.2299   -6.7467   36.2065 O   0  0  0  0  0  0  0  0  0  0  0  0
   -0.6363   -6.7471   33.9486 C   0  0  0  0  0  0  0  0  0  0  0  0
   -1.4448   -7.7848   33.5839 C   0  0  0  0  0  0  0  0  0  0  0  0
   -1.4684   -7.9995   32.2358 C   0  0  0  0  0  0  0  0  0  0  0  0
   -2.2281   -9.0018   31.7135 O   0  0  0  0  0  0  0  0  0  0  0  0
   -0.7906   -7.2875   31.3221 N   0  0  0  0  0  0  0  0  0  0  0  0
    0.0314   -6.3413   31.8025 C   0  0  0  0  0  0  0  0  0  0  0  0
    0.8957   -5.5508   30.8658 C   0  0  0  0  0  0  0  0  0  0  0  0
    0.3021   -4.1976   30.5012 C   0  0  0  0  0  0  0  0  0  0  0  0
    0.1647   -3.3187   31.6761 N   0  0  0  0  0  0  0  0  0  0  0  0
   -1.1976   -2.3278   31.7487 S   0  0  0  0  0  0  0  0  0  0  0  0
   -1.0890   -1.5141   32.9363 O   0  0  0  0  0  0  0  0  0  0  0  0
   -2.3722   -3.1241   31.4537 O   0  0  0  0  0  0  0  0  0  0  0  0
   -1.0638   -1.1925   30.4167 C   0  0  0  0  0  0  0  0  0  0  0  0
   -1.5787   -1.4323   29.1578 C   0  0  0  0  0  0  0  0  0  0  0  0
   -1.2301   -0.1110   28.1234 S   0  0  0  0  0  0  0  0  0  0  0  0
   -0.3775    0.6471   29.4010 C   0  0  0  0  0  0  0  0  0  0  0  0
   -0.3332   -0.0090   30.5390 N   0  0  0  0  0  0  0  0  0  0  0  0
    0.1326   -6.0361   33.0953 N   0  0  0  0  0  0  0  0  0  0  0  0
  1  2  1  0
  2  3  2  0
  3  4  1  0
  4  5  2  0
  5  6  1  0
  5  7  1  0
  7  8  2  0
  8  9  1  0
  9 10  1  0
 10 11  2  0
 10 12  1  0
 12 13  2  0
 13 14  1  0
 14 15  1  0
 14 16  2  0
 16 17  1  0
 17 18  1  0
 18 19  1  0
 19 20  1  0
 20 21  1  0
 21 22  2  0
 21 23  2  0
 21 24  1  0
 24 25  2  0
 25 26  1  0
 26 27  1  0
 27 28  2  0
 17 29  2  0
  8  2  1  0
 29 12  1  0
 28 24  1  0
M  END
>  <tags>  (142) 
{'openbind_d68ev3c_c1_fragmenstein', 'fragmenstein_placed'}

>  <fragmenstein_mode>  (142) 
expansion

>  <smiles>  (142) 
C157-P56

>  <alias>  (142) 
Cc1ccc(F)cc1NC(=O)c1cc(O)nc(CCNS(=O)(=O)c2cscn2)n1

>  <fragmenstein_runtime>  (142) 
1.762519

>  <inchikey>  (142) 
KDBFWFCMBXFUNH-UHFFFAOYSA-N

>  <HIPPO Compound ID>  (142) 
157

>  <scratch_subdir>  (142) 
/opt/xchem-fragalysis-2/maxwin/BulkDock/SCRATCH/494511/C157-P56

>  <fragmenstein_outcome>  (142) 
acceptable

>  <fragmenstein_error>  (142) 


>  <ref_pdb>  (142) 
56

>  <HIPPO Pose ID>  (142) 
2077

>  <Energy>  (142) 
-11.471129

$$$$
CCC(=O)Nc1cc(CNc2nc(S(=O)(=O)NCCc3nc(C)cc(O)n3)cs2)c(C)cc1O
     RDKit          3D

 34 36  0  0  0  0  0  0  0  0999 V2000
    4.9521    5.3122   27.9366 C   0  0  0  0  0  0  0  0  0  0  0  0
    5.0465    4.5411   26.6294 C   0  0  0  0  0  0  0  0  0  0  0  0
    3.7909    4.6261   25.7593 C   0  0  0  0  0  0  0  0  0  0  0  0
    3.7924    5.0717   24.6804 O   0  0  0  0  0  0  0  0  0  0  0  0
    2.6351    4.0215   26.5933 N   0  0  0  0  0  0  0  0  0  0  0  0
    1.3090    3.7625   26.2491 C   0  0  0  0  0  0  0  0  0  0  0  0
    0.5112    3.3396   27.3012 C   0  0  0  0  0  0  0  0  0  0  0  0
   -0.8341    2.9765   27.1178 C   0  0  0  0  0  0  0  0  0  0  0  0
   -1.5945    2.4812   28.3060 C   0  0  0  0  0  0  0  0  0  0  0  0
   -0.6984    1.7050   29.1623 N   0  0  0  0  0  0  0  0  0  0  0  0
   -0.9127    0.3905   29.3438 C   0  0  0  0  0  0  0  0  0  0  0  0
   -0.7911   -0.1539   30.5295 N   0  0  0  0  0  0  0  0  0  0  0  0
   -1.1362   -1.4963   30.4606 C   0  0  0  0  0  0  0  0  0  0  0  0
   -1.0971   -2.5312   31.8636 S   0  0  0  0  0  0  0  0  0  0  0  0
   -1.1095   -1.6355   32.9975 O   0  0  0  0  0  0  0  0  0  0  0  0
   -2.1381   -3.5123   31.6369 O   0  0  0  0  0  0  0  0  0  0  0  0
    0.3977   -3.3034   31.8490 N   0  0  0  0  0  0  0  0  0  0  0  0
    0.7229   -4.1715   30.7022 C   0  0  0  0  0  0  0  0  0  0  0  0
    1.5235   -5.3884   31.1504 C   0  0  0  0  0  0  0  0  0  0  0  0
    0.6657   -6.2781   32.0010 C   0  0  0  0  0  0  0  0  0  0  0  0
    0.7933   -6.1561   33.3373 N   0  0  0  0  0  0  0  0  0  0  0  0
   -0.1248   -6.7786   34.0960 C   0  0  0  0  0  0  0  0  0  0  0  0
   -0.0555   -6.5857   35.5799 C   0  0  0  0  0  0  0  0  0  0  0  0
   -1.1166   -7.5541   33.5440 C   0  0  0  0  0  0  0  0  0  0  0  0
   -1.0977   -7.6842   32.1779 C   0  0  0  0  0  0  0  0  0  0  0  0
   -2.0003   -8.4785   31.5318 O   0  0  0  0  0  0  0  0  0  0  0  0
   -0.2374   -7.0526   31.3768 N   0  0  0  0  0  0  0  0  0  0  0  0
   -1.4032   -1.9684   29.1948 C   0  0  0  0  0  0  0  0  0  0  0  0
   -1.3000   -0.6953   28.0696 S   0  0  0  0  0  0  0  0  0  0  0  0
   -1.4346    3.1347   25.8643 C   0  0  0  0  0  0  0  0  0  0  0  0
   -2.8891    2.8270   25.6399 C   0  0  0  0  0  0  0  0  0  0  0  0
   -0.6317    3.5615   24.8023 C   0  0  0  0  0  0  0  0  0  0  0  0
    0.7258    3.8589   24.9918 C   0  0  0  0  0  0  0  0  0  0  0  0
    1.4044    4.2012   23.8635 O   0  0  0  0  0  0  0  0  0  0  0  0
  1  2  1  0
  2  3  1  0
  3  4  2  0
  3  5  1  0
  5  6  1  0
  6  7  2  0
  7  8  1  0
  8  9  1  0
  9 10  1  0
 10 11  1  0
 11 12  2  0
 12 13  1  0
 13 14  1  0
 14 15  2  0
 14 16  2  0
 14 17  1  0
 17 18  1  0
 18 19  1  0
 19 20  1  0
 20 21  2  0
 21 22  1  0
 22 23  1  0
 22 24  2  0
 24 25  1  0
 25 26  1  0
 25 27  2  0
 13 28  2  0
 28 29  1  0
  8 30  2  0
 30 31  1  0
 30 32  1  0
 32 33  2  0
 33 34  1  0
 33  6  1  0
 29 11  1  0
 27 20  1  0
M  END
>  <tags>  (143) 
{'openbind_d68ev3c_c1_fragmenstein', 'fragmenstein_placed'}

>  <fragmenstein_mode>  (143) 
expansion

>  <smiles>  (143) 
C158-P57

>  <alias>  (143) 
CCC(=O)Nc1cc(CNc2nc(S(=O)(=O)NCCc3nc(C)cc(O)n3)cs2)c(C)cc1O

>  <fragmenstein_runtime>  (143) 
4.288827

>  <inchikey>  (143) 
OALQTJJGTBIUQJ-UHFFFAOYSA-N

>  <HIPPO Compound ID>  (143) 
158

>  <scratch_subdir>  (143) 
/opt/xchem-fragalysis-2/maxwin/BulkDock/SCRATCH/494511/C158-P57

>  <fragmenstein_outcome>  (143) 
acceptable

>  <fragmenstein_error>  (143) 


>  <ref_pdb>  (143) 
56

>  <HIPPO Pose ID>  (143) 
2078

>  <Energy>  (143) 
-59.216472

$$$$
COC(=O)CNN=[S@@](=O)(NCCc1nc(C)cc(O)n1)c1csc(C)n1
     RDKit          3D

 26 27  0  0  0  0  0  0  0  0999 V2000
   -5.9407    0.6710   35.5340 C   0  0  0  0  0  0  0  0  0  0  0  0
   -5.2090   -0.5224   35.2442 O   0  0  0  0  0  0  0  0  0  0  0  0
   -4.6156   -0.5277   34.0178 C   0  0  0  0  0  0  0  0  0  0  0  0
   -4.6278    0.4047   33.2219 O   0  0  0  0  0  0  0  0  0  0  0  0
   -3.9182   -1.8448   33.7655 C   0  0  0  0  0  0  0  0  0  0  0  0
   -3.7414   -2.0415   32.3116 N   0  0  0  0  0  0  0  0  0  0  0  0
   -2.5251   -2.8400   31.8285 N   0  0  0  0  0  0  0  0  0  0  0  0
   -1.1247   -2.1751   31.9112 S   0  0  1  0  0  0  0  0  0  0  0  0
   -0.6577   -1.3137   32.9729 O   0  0  0  0  0  0  0  0  0  0  0  0
   -0.0059   -3.4087   31.8803 N   0  0  0  0  0  0  0  0  0  0  0  0
    0.4189   -4.1013   30.6780 C   0  0  0  0  0  0  0  0  0  0  0  0
    1.2949   -5.3190   31.0011 C   0  0  0  0  0  0  0  0  0  0  0  0
    0.5499   -6.2826   31.8806 C   0  0  0  0  0  0  0  0  0  0  0  0
    0.7400   -6.1659   33.2121 N   0  0  0  0  0  0  0  0  0  0  0  0
   -0.1295   -6.8114   34.0095 C   0  0  0  0  0  0  0  0  0  0  0  0
   -0.0044   -6.6167   35.4900 C   0  0  0  0  0  0  0  0  0  0  0  0
   -1.1292   -7.6058   33.5000 C   0  0  0  0  0  0  0  0  0  0  0  0
   -1.1648   -7.7334   32.1341 C   0  0  0  0  0  0  0  0  0  0  0  0
   -2.0794   -8.5401   31.5234 O   0  0  0  0  0  0  0  0  0  0  0  0
   -0.3561   -7.0825   31.2959 N   0  0  0  0  0  0  0  0  0  0  0  0
   -1.0425   -1.2226   30.4481 C   0  0  0  0  0  0  0  0  0  0  0  0
   -1.5666   -1.6280   29.2379 C   0  0  0  0  0  0  0  0  0  0  0  0
   -1.2987   -0.4302   28.0484 S   0  0  0  0  0  0  0  0  0  0  0  0
   -0.4788    0.5309   29.2097 C   0  0  0  0  0  0  0  0  0  0  0  0
    0.0857    1.8498   28.8094 C   0  0  0  0  0  0  0  0  0  0  0  0
   -0.4029    0.0186   30.4204 N   0  0  0  0  0  0  0  0  0  0  0  0
  1  2  1  0
  2  3  1  0
  3  4  2  0
  3  5  1  0
  5  6  1  0
  6  7  1  0
  7  8  2  0
  8  9  2  0
  8 10  1  6
 10 11  1  0
 11 12  1  0
 12 13  1  0
 13 14  2  0
 14 15  1  0
 15 16  1  0
 15 17  2  0
 17 18  1  0
 18 19  1  0
 18 20  2  0
  8 21  1  0
 21 22  2  0
 22 23  1  0
 23 24  1  0
 24 25  1  0
 24 26  2  0
 20 13  1  0
 26 21  1  0
M  END
>  <tags>  (144) 
{'openbind_d68ev3c_c1_fragmenstein', 'fragmenstein_placed'}

>  <fragmenstein_mode>  (144) 
expansion

>  <smiles>  (144) 
C159-P59

>  <alias>  (144) 
COC(=O)CNN=[S@@](=O)(NCCc1nc(C)cc(O)n1)c1csc(C)n1

>  <fragmenstein_runtime>  (144) 
2.58409

>  <inchikey>  (144) 
ZDQDZRHGVOSIRW-UHFFFAOYSA-N

>  <HIPPO Compound ID>  (144) 
159

>  <scratch_subdir>  (144) 
/opt/xchem-fragalysis-2/maxwin/BulkDock/SCRATCH/494511/C159-P59

>  <fragmenstein_outcome>  (144) 
acceptable

>  <fragmenstein_error>  (144) 


>  <ref_pdb>  (144) 
56

>  <HIPPO Pose ID>  (144) 
2079

>  <Energy>  (144) 
34.979951

$$$$
Cc1cn2ncnc2c(CCNS(=O)(=O)c2cscn2)n1
     RDKit          3D

 21 23  0  0  0  0  0  0  0  0999 V2000
   -0.4964   -6.5016   35.6888 C   0  0  0  0  0  0  0  0  0  0  0  0
   -0.3609   -6.6617   34.2040 C   0  0  0  0  0  0  0  0  0  0  0  0
   -1.1024   -7.5540   33.5194 C   0  0  0  0  0  0  0  0  0  0  0  0
   -0.8943   -7.6981   32.1641 N   0  0  0  0  0  0  0  0  0  0  0  0
   -1.4055   -8.5611   31.2550 N   0  0  0  0  0  0  0  0  0  0  0  0
   -0.6071   -8.3368   30.2032 C   0  0  0  0  0  0  0  0  0  0  0  0
    0.2356   -7.2790   30.3004 N   0  0  0  0  0  0  0  0  0  0  0  0
    0.0418   -6.9160   31.5423 C   0  0  0  0  0  0  0  0  0  0  0  0
    0.7413   -5.9293   32.3042 C   0  0  0  0  0  0  0  0  0  0  0  0
    1.6616   -4.9855   31.5745 C   0  0  0  0  0  0  0  0  0  0  0  0
    0.8385   -3.8730   30.9351 C   0  0  0  0  0  0  0  0  0  0  0  0
    0.2842   -3.0203   31.9963 N   0  0  0  0  0  0  0  0  0  0  0  0
   -1.2295   -2.3270   31.7528 S   0  0  0  0  0  0  0  0  0  0  0  0
   -1.4864   -1.4403   32.8639 O   0  0  0  0  0  0  0  0  0  0  0  0
   -2.1518   -3.3769   31.3704 O   0  0  0  0  0  0  0  0  0  0  0  0
   -1.0792   -1.2667   30.3692 C   0  0  0  0  0  0  0  0  0  0  0  0
   -1.6339   -1.5266   29.1343 C   0  0  0  0  0  0  0  0  0  0  0  0
   -1.2306   -0.2752   28.0364 S   0  0  0  0  0  0  0  0  0  0  0  0
   -0.3224    0.4934   29.2684 C   0  0  0  0  0  0  0  0  0  0  0  0
   -0.2825   -0.1198   30.4319 N   0  0  0  0  0  0  0  0  0  0  0  0
    0.5741   -5.8344   33.5956 N   0  0  0  0  0  0  0  0  0  0  0  0
  1  2  1  0
  2  3  2  0
  3  4  1  0
  4  5  1  0
  5  6  2  0
  6  7  1  0
  7  8  2  0
  8  9  1  0
  9 10  1  0
 10 11  1  0
 11 12  1  0
 12 13  1  0
 13 14  2  0
 13 15  2  0
 13 16  1  0
 16 17  2  0
 17 18  1  0
 18 19  1  0
 19 20  2  0
  9 21  2  0
 21  2  1  0
  8  4  1  0
 20 16  1  0
M  END
>  <tags>  (145) 
{'openbind_d68ev3c_c1_fragmenstein', 'fragmenstein_placed'}

>  <fragmenstein_mode>  (145) 
expansion

>  <smiles>  (145) 
C163-P105

>  <alias>  (145) 
Cc1cn2ncnc2c(CCNS(=O)(=O)c2cscn2)n1

>  <fragmenstein_runtime>  (145) 
3.349472

>  <inchikey>  (145) 
XAAOQRDMNIFOQN-UHFFFAOYSA-N

>  <HIPPO Compound ID>  (145) 
163

>  <scratch_subdir>  (145) 
/opt/xchem-fragalysis-2/maxwin/BulkDock/SCRATCH/494511/C163-P105

>  <fragmenstein_outcome>  (145) 
acceptable

>  <fragmenstein_error>  (145) 


>  <ref_pdb>  (145) 
56

>  <HIPPO Pose ID>  (145) 
2082

>  <Energy>  (145) 
11.368676

$$$$
Cc1cc(O)nc(CCN[S@](=O)(=NCCC2(O)CCN(Cc3ccsc3)CC2)c2cscn2)n1
     RDKit          3D

 34 37  0  0  0  0  0  0  0  0999 V2000
   -0.3724   -6.6915   35.2894 C   0  0  0  0  0  0  0  0  0  0  0  0
   -0.3900   -6.6232   33.8096 C   0  0  0  0  0  0  0  0  0  0  0  0
   -1.1333   -7.5223   33.0864 C   0  0  0  0  0  0  0  0  0  0  0  0
   -0.9195   -7.4527   31.7477 C   0  0  0  0  0  0  0  0  0  0  0  0
   -1.4551   -8.3326   30.8874 O   0  0  0  0  0  0  0  0  0  0  0  0
   -0.0930   -6.6291   31.1255 N   0  0  0  0  0  0  0  0  0  0  0  0
    0.6117   -5.8236   31.9200 C   0  0  0  0  0  0  0  0  0  0  0  0
    1.4504   -4.7933   31.2413 C   0  0  0  0  0  0  0  0  0  0  0  0
    0.5058   -3.8717   30.4774 C   0  0  0  0  0  0  0  0  0  0  0  0
   -0.4567   -3.1924   31.3522 N   0  0  0  0  0  0  0  0  0  0  0  0
   -0.1873   -1.5917   31.7568 S   0  0  2  0  0  0  0  0  0  0  0  0
    1.2341   -1.5051   31.9521 O   0  0  0  0  0  0  0  0  0  0  0  0
   -1.2449   -1.2749   32.7866 N   0  0  0  0  0  0  0  0  0  0  0  0
   -2.6679   -1.3859   32.5621 C   0  0  0  0  0  0  0  0  0  0  0  0
   -3.2598   -1.7143   33.9214 C   0  0  0  0  0  0  0  0  0  0  0  0
   -4.7506   -1.4237   34.0394 C   0  0  0  0  0  0  0  0  0  0  0  0
   -5.4231   -2.0908   32.9626 O   0  0  0  0  0  0  0  0  0  0  0  0
   -5.2532   -1.9968   35.3687 C   0  0  0  0  0  0  0  0  0  0  0  0
   -5.8148   -0.9453   36.3219 C   0  0  0  0  0  0  0  0  0  0  0  0
   -6.8768   -0.2473   35.6141 N   0  0  0  0  0  0  0  0  0  0  0  0
   -7.6593    0.6498   36.4640 C   0  0  0  0  0  0  0  0  0  0  0  0
   -8.7227   -0.1232   37.1896 C   0  0  0  0  0  0  0  0  0  0  0  0
   -9.1225    0.1416   38.5404 C   0  0  0  0  0  0  0  0  0  0  0  0
  -10.1644   -0.6590   38.9516 C   0  0  0  0  0  0  0  0  0  0  0  0
  -10.6614   -1.7448   37.7296 S   0  0  0  0  0  0  0  0  0  0  0  0
   -9.4989   -1.1312   36.6409 C   0  0  0  0  0  0  0  0  0  0  0  0
   -6.3950    0.4622   34.4311 C   0  0  0  0  0  0  0  0  0  0  0  0
   -5.0004    0.0799   33.9568 C   0  0  0  0  0  0  0  0  0  0  0  0
   -0.5518   -0.5941   30.3809 C   0  0  0  0  0  0  0  0  0  0  0  0
   -1.0888   -1.0823   29.2028 C   0  0  0  0  0  0  0  0  0  0  0  0
   -1.1728    0.1751   28.0440 S   0  0  0  0  0  0  0  0  0  0  0  0
   -0.4713    1.2462   29.1736 C   0  0  0  0  0  0  0  0  0  0  0  0
   -0.2457    0.7636   30.3728 N   0  0  0  0  0  0  0  0  0  0  0  0
    0.4586   -5.7399   33.2474 N   0  0  0  0  0  0  0  0  0  0  0  0
  1  2  1  0
  2  3  2  0
  3  4  1  0
  4  5  1  0
  4  6  2  0
  6  7  1  0
  7  8  1  0
  8  9  1  0
  9 10  1  0
 11 10  1  6
 11 12  2  0
 11 13  2  0
 13 14  1  0
 14 15  1  0
 15 16  1  0
 16 17  1  0
 16 18  1  0
 18 19  1  0
 19 20  1  0
 20 21  1  0
 21 22  1  0
 22 23  1  0
 23 24  2  0
 24 25  1  0
 25 26  1  0
 20 27  1  0
 27 28  1  0
 11 29  1  0
 29 30  2  0
 30 31  1  0
 31 32  1  0
 32 33  2  0
  7 34  2  0
 34  2  1  0
 28 16  1  0
 33 29  1  0
 26 22  2  0
M  END
>  <tags>  (146) 
{'openbind_d68ev3c_c1_fragmenstein', 'fragmenstein_placed'}

>  <fragmenstein_mode>  (146) 
expansion

>  <smiles>  (146) 
C164-P121

>  <alias>  (146) 
Cc1cc(O)nc(CCN[S@](=O)(=NCCC2(O)CCN(Cc3ccsc3)CC2)c2cscn2)n1

>  <fragmenstein_runtime>  (146) 
4.789967

>  <inchikey>  (146) 
OCGRGNJVXOAUJK-UHFFFAOYSA-N

>  <HIPPO Compound ID>  (146) 
164

>  <scratch_subdir>  (146) 
/opt/xchem-fragalysis-2/maxwin/BulkDock/SCRATCH/494511/C164-P121

>  <fragmenstein_outcome>  (146) 
acceptable

>  <fragmenstein_error>  (146) 


>  <ref_pdb>  (146) 
56

>  <HIPPO Pose ID>  (146) 
2083

>  <Energy>  (146) 
-51.04946

$$$$
COc1ccc([C@@H]2NN3[C@H](C)C[C@H](O)N3C[C@H]2CNS(=O)(=O)c2cscn2)cc1OC
     RDKit          3D

 31 34  0  0  0  0  0  0  0  0999 V2000
    5.1906    0.2311   34.5556 C   0  0  0  0  0  0  0  0  0  0  0  0
    4.1944   -0.5035   35.2457 O   0  0  0  0  0  0  0  0  0  0  0  0
    3.5543   -1.4851   34.5436 C   0  0  0  0  0  0  0  0  0  0  0  0
    3.5658   -1.6190   33.1595 C   0  0  0  0  0  0  0  0  0  0  0  0
    2.8527   -2.6543   32.5421 C   0  0  0  0  0  0  0  0  0  0  0  0
    2.0519   -3.5390   33.2816 C   0  0  0  0  0  0  0  0  0  0  0  0
    1.1111   -4.5638   32.6511 C   0  0  2  0  0  0  0  0  0  0  0  0
    1.2440   -5.8888   33.2804 N   0  0  0  0  0  0  0  0  0  0  0  0
    0.2925   -6.8219   32.7855 N   0  0  0  0  0  0  0  0  0  0  0  0
   -0.9018   -7.0679   33.6099 C   0  0  2  0  0  0  0  0  0  0  0  0
   -0.7177   -7.5298   35.0382 C   0  0  0  0  0  0  0  0  0  0  0  0
   -1.4971   -8.1150   32.6682 C   0  0  0  0  0  0  0  0  0  0  0  0
   -1.2321   -7.5574   31.2801 C   0  0  2  0  0  0  0  0  0  0  0  0
   -0.7661   -8.5065   30.3499 O   0  0  0  0  0  0  0  0  0  0  0  0
   -0.3309   -6.4674   31.5647 N   0  0  0  0  0  0  0  0  0  0  0  0
    0.6050   -6.0252   30.5774 C   0  0  0  0  0  0  0  0  0  0  0  0
    1.2159   -4.7075   31.0916 C   0  0  1  0  0  0  0  0  0  0  0  0
    0.4884   -3.5534   30.4048 C   0  0  0  0  0  0  0  0  0  0  0  0
   -0.9398   -3.5811   30.7548 N   0  0  0  0  0  0  0  0  0  0  0  0
   -1.5692   -2.1719   31.4197 S   0  0  0  0  0  0  0  0  0  0  0  0
   -0.7683   -1.8055   32.5623 O   0  0  0  0  0  0  0  0  0  0  0  0
   -2.9870   -2.4212   31.5292 O   0  0  0  0  0  0  0  0  0  0  0  0
   -1.3079   -0.9387   30.2103 C   0  0  0  0  0  0  0  0  0  0  0  0
   -1.4957   -1.1830   28.8621 C   0  0  0  0  0  0  0  0  0  0  0  0
   -0.9492    0.1517   27.9429 S   0  0  0  0  0  0  0  0  0  0  0  0
   -0.4660    0.9270   29.3874 C   0  0  0  0  0  0  0  0  0  0  0  0
   -0.6880    0.2734   30.5075 N   0  0  0  0  0  0  0  0  0  0  0  0
    2.0400   -3.3796   34.6764 C   0  0  0  0  0  0  0  0  0  0  0  0
    2.8227   -2.4064   35.2935 C   0  0  0  0  0  0  0  0  0  0  0  0
    2.8202   -2.3767   36.6644 O   0  0  0  0  0  0  0  0  0  0  0  0
    3.9892   -3.0360   37.1546 C   0  0  0  0  0  0  0  0  0  0  0  0
  1  2  1  0
  2  3  1  0
  3  4  2  0
  4  5  1  0
  5  6  2  0
  7  6  1  1
  7  8  1  0
  8  9  1  0
  9 10  1  0
 10 11  1  1
 10 12  1  0
 12 13  1  0
 13 14  1  6
 13 15  1  0
 15 16  1  0
 16 17  1  0
 17 18  1  6
 18 19  1  0
 19 20  1  0
 20 21  2  0
 20 22  2  0
 20 23  1  0
 23 24  2  0
 24 25  1  0
 25 26  1  0
 26 27  2  0
  6 28  1  0
 28 29  2  0
 29 30  1  0
 30 31  1  0
 29  3  1  0
 17  7  1  0
 27 23  1  0
 15  9  1  0
M  END
>  <tags>  (147) 
{'openbind_d68ev3c_c1_fragmenstein', 'fragmenstein_placed'}

>  <fragmenstein_mode>  (147) 
expansion

>  <smiles>  (147) 
C170-P133

>  <alias>  (147) 
COc1ccc([C@@H]2NN3[C@H](C)C[C@H](O)N3C[C@H]2CNS(=O)(=O)c2cscn2)cc1OC

>  <fragmenstein_runtime>  (147) 
2.867146

>  <inchikey>  (147) 
QIDOCGRTYZUKQH-UHFFFAOYSA-N

>  <HIPPO Compound ID>  (147) 
170

>  <scratch_subdir>  (147) 
/opt/xchem-fragalysis-2/maxwin/BulkDock/SCRATCH/494511/C170-P133

>  <fragmenstein_outcome>  (147) 
acceptable

>  <fragmenstein_error>  (147) 


>  <ref_pdb>  (147) 
56

>  <HIPPO Pose ID>  (147) 
2088

>  <Energy>  (147) 
56.557833

$$$$
Cc1cc(O)nc(C[C@H](NCC[C@@H](N)c2ocnc2C(=O)Nc2c[nH]c(=O)c3ccccc23)NS(=O)(=O)c2cscn2)n1
     RDKit          3D

 43 47  0  0  0  0  0  0  0  0999 V2000
   -0.0431   -6.6891   35.5416 C   0  0  0  0  0  0  0  0  0  0  0  0
   -0.1274   -6.8099   34.0506 C   0  0  0  0  0  0  0  0  0  0  0  0
   -1.0780   -7.6104   33.4665 C   0  0  0  0  0  0  0  0  0  0  0  0
   -1.0762   -7.6542   32.0941 C   0  0  0  0  0  0  0  0  0  0  0  0
   -1.9517   -8.4470   31.4125 O   0  0  0  0  0  0  0  0  0  0  0  0
   -0.2601   -6.9406   31.3149 N   0  0  0  0  0  0  0  0  0  0  0  0
    0.6240   -6.1727   31.9709 C   0  0  0  0  0  0  0  0  0  0  0  0
    1.5924   -5.3619   31.1697 C   0  0  0  0  0  0  0  0  0  0  0  0
    1.0688   -3.9780   30.7368 C   0  0  2  0  0  0  0  0  0  0  0  0
    2.2276   -3.2861   30.1667 N   0  0  0  0  0  0  0  0  0  0  0  0
    1.9646   -2.1322   29.3167 C   0  0  0  0  0  0  0  0  0  0  0  0
    1.1939   -2.3928   28.0128 C   0  0  0  0  0  0  0  0  0  0  0  0
    1.9400   -3.2946   27.0321 C   0  0  1  0  0  0  0  0  0  0  0  0
    1.1294   -3.6078   25.8724 N   0  0  0  0  0  0  0  0  0  0  0  0
    3.2101   -2.6883   26.5859 C   0  0  0  0  0  0  0  0  0  0  0  0
    3.1764   -1.5067   25.9062 O   0  0  0  0  0  0  0  0  0  0  0  0
    4.4721   -1.3096   25.5444 C   0  0  0  0  0  0  0  0  0  0  0  0
    5.3132   -2.2394   25.9431 N   0  0  0  0  0  0  0  0  0  0  0  0
    4.5141   -3.1111   26.6457 C   0  0  0  0  0  0  0  0  0  0  0  0
    4.9464   -4.3559   27.2520 C   0  0  0  0  0  0  0  0  0  0  0  0
    4.5307   -4.7052   28.2869 O   0  0  0  0  0  0  0  0  0  0  0  0
    5.8870   -5.0683   26.2610 N   0  0  0  0  0  0  0  0  0  0  0  0
    6.5508   -6.2475   26.3671 C   0  0  0  0  0  0  0  0  0  0  0  0
    6.6068   -7.0339   25.2832 C   0  0  0  0  0  0  0  0  0  0  0  0
    7.1198   -8.3004   25.3234 N   0  0  0  0  0  0  0  0  0  0  0  0
    7.6510   -8.8821   26.4473 C   0  0  0  0  0  0  0  0  0  0  0  0
    8.0644  -10.0351   26.4529 O   0  0  0  0  0  0  0  0  0  0  0  0
    7.7041   -8.0202   27.6596 C   0  0  0  0  0  0  0  0  0  0  0  0
    8.3509   -8.4956   28.8043 C   0  0  0  0  0  0  0  0  0  0  0  0
    8.4569   -7.6876   29.9350 C   0  0  0  0  0  0  0  0  0  0  0  0
    7.9338   -6.4006   29.9151 C   0  0  0  0  0  0  0  0  0  0  0  0
    7.3058   -5.9204   28.7640 C   0  0  0  0  0  0  0  0  0  0  0  0
    7.1520   -6.7280   27.6255 C   0  0  0  0  0  0  0  0  0  0  0  0
    0.6202   -3.2366   31.9043 N   0  0  0  0  0  0  0  0  0  0  0  0
   -0.9373   -2.6260   31.9734 S   0  0  0  0  0  0  0  0  0  0  0  0
   -1.1536   -2.0641   33.2872 O   0  0  0  0  0  0  0  0  0  0  0  0
   -1.8744   -3.5589   31.3795 O   0  0  0  0  0  0  0  0  0  0  0  0
   -0.9612   -1.2137   30.9415 C   0  0  0  0  0  0  0  0  0  0  0  0
   -1.5218   -1.1767   29.6829 C   0  0  0  0  0  0  0  0  0  0  0  0
   -1.2058    0.3491   28.9702 S   0  0  0  0  0  0  0  0  0  0  0  0
   -0.3174    0.8192   30.3432 C   0  0  0  0  0  0  0  0  0  0  0  0
   -0.2632   -0.0594   31.3146 N   0  0  0  0  0  0  0  0  0  0  0  0
    0.7531   -6.1162   33.3127 N   0  0  0  0  0  0  0  0  0  0  0  0
  1  2  1  0
  2  3  2  0
  3  4  1  0
  4  5  1  0
  4  6  2  0
  6  7  1  0
  7  8  1  0
  9  8  1  1
  9 10  1  0
 10 11  1  0
 11 12  1  0
 12 13  1  0
 13 14  1  6
 13 15  1  0
 15 16  1  0
 16 17  1  0
 17 18  2  0
 18 19  1  0
 19 20  1  0
 20 21  2  0
 20 22  1  0
 22 23  1  0
 23 24  2  0
 24 25  1  0
 25 26  1  0
 26 27  2  0
 26 28  1  0
 28 29  2  0
 29 30  1  0
 30 31  2  0
 31 32  1  0
 32 33  2  0
  9 34  1  0
 34 35  1  0
 35 36  2  0
 35 37  2  0
 35 38  1  0
 38 39  2  0
 39 40  1  0
 40 41  1  0
 41 42  2  0
  7 43  2  0
 43  2  1  0
 19 15  2  0
 33 23  1  0
 42 38  1  0
 33 28  1  0
M  END
>  <tags>  (148) 
{'openbind_d68ev3c_c1_fragmenstein', 'fragmenstein_placed'}

>  <fragmenstein_mode>  (148) 
expansion

>  <smiles>  (148) 
C181-P154

>  <alias>  (148) 
Cc1cc(O)nc(C[C@H](NCC[C@@H](N)c2ocnc2C(=O)Nc2c[nH]c(=O)c3ccccc23)NS(=O)(=O)c2cscn2)n1

>  <fragmenstein_runtime>  (148) 
7.580502

>  <inchikey>  (148) 
UUMMUIZAOWDWTD-UHFFFAOYSA-N

>  <HIPPO Compound ID>  (148) 
181

>  <scratch_subdir>  (148) 
/opt/xchem-fragalysis-2/maxwin/BulkDock/SCRATCH/494511/C181-P154

>  <fragmenstein_outcome>  (148) 
acceptable

>  <fragmenstein_error>  (148) 


>  <ref_pdb>  (148) 
56

>  <HIPPO Pose ID>  (148) 
2097

>  <Energy>  (148) 
-14.260073

$$$$
Cc1cc(O)nc(CCNS(=O)(=O)c2csc(N)n2)n1
     RDKit          3D

 20 21  0  0  0  0  0  0  0  0999 V2000
   -0.0939   -6.4832   35.3382 C   0  0  0  0  0  0  0  0  0  0  0  0
   -0.1708   -6.7460   33.8630 C   0  0  0  0  0  0  0  0  0  0  0  0
   -1.1075   -7.6250   33.3677 C   0  0  0  0  0  0  0  0  0  0  0  0
   -1.1081   -7.7988   32.0069 C   0  0  0  0  0  0  0  0  0  0  0  0
   -1.9927   -8.6354   31.3986 O   0  0  0  0  0  0  0  0  0  0  0  0
   -0.2767   -7.1780   31.1654 N   0  0  0  0  0  0  0  0  0  0  0  0
    0.5975   -6.3347   31.7328 C   0  0  0  0  0  0  0  0  0  0  0  0
    1.4457   -5.4970   30.8180 C   0  0  0  0  0  0  0  0  0  0  0  0
    0.6464   -4.2878   30.3764 C   0  0  0  0  0  0  0  0  0  0  0  0
    0.4413   -3.3327   31.4917 N   0  0  0  0  0  0  0  0  0  0  0  0
   -1.0616   -2.5491   31.5457 S   0  0  0  0  0  0  0  0  0  0  0  0
   -1.0020   -1.5817   32.6168 O   0  0  0  0  0  0  0  0  0  0  0  0
   -2.0900   -3.5697   31.4955 O   0  0  0  0  0  0  0  0  0  0  0  0
   -1.2500   -1.6473   30.0720 C   0  0  0  0  0  0  0  0  0  0  0  0
   -1.2687   -2.2574   28.8347 C   0  0  0  0  0  0  0  0  0  0  0  0
   -1.3406   -1.0903   27.6087 S   0  0  0  0  0  0  0  0  0  0  0  0
   -1.4710    0.1208   28.8098 C   0  0  0  0  0  0  0  0  0  0  0  0
   -1.7666    1.3647   28.4352 N   0  0  0  0  0  0  0  0  0  0  0  0
   -1.3835   -0.2663   30.0529 N   0  0  0  0  0  0  0  0  0  0  0  0
    0.6926   -6.0936   33.0573 N   0  0  0  0  0  0  0  0  0  0  0  0
  1  2  1  0
  2  3  2  0
  3  4  1  0
  4  5  1  0
  4  6  2  0
  6  7  1  0
  7  8  1  0
  8  9  1  0
  9 10  1  0
 10 11  1  0
 11 12  2  0
 11 13  2  0
 11 14  1  0
 14 15  2  0
 15 16  1  0
 16 17  1  0
 17 18  1  0
 17 19  2  0
  7 20  2  0
 20  2  1  0
 19 14  1  0
M  END
>  <tags>  (149) 
{'openbind_d68ev3c_c1_fragmenstein', 'fragmenstein_placed'}

>  <fragmenstein_mode>  (149) 
expansion

>  <smiles>  (149) 
C197-P197

>  <alias>  (149) 
Cc1cc(O)nc(CCNS(=O)(=O)c2csc(N)n2)n1

>  <fragmenstein_runtime>  (149) 
1.706745

>  <inchikey>  (149) 
OBGNNZZOUNWWLM-UHFFFAOYSA-N

>  <HIPPO Compound ID>  (149) 
197

>  <scratch_subdir>  (149) 
/opt/xchem-fragalysis-2/maxwin/BulkDock/SCRATCH/494511/C197-P197

>  <fragmenstein_outcome>  (149) 
acceptable

>  <fragmenstein_error>  (149) 


>  <ref_pdb>  (149) 
56

>  <HIPPO Pose ID>  (149) 
2108

>  <Energy>  (149) 
-83.04315

$$$$
Nc1ccc(S(=O)(=O)N[C@H](Cc2nccc(O)n2)NC[C@@H](N)c2ocnc2C(=O)Nc2c[nH]c(=O)c3ccccc23)cn1
     RDKit          3D

 43 47  0  0  0  0  0  0  0  0999 V2000
   -1.6526    1.4712   26.8623 N   0  0  0  0  0  0  0  0  0  0  0  0
   -1.3279    0.6371   27.9279 C   0  0  0  0  0  0  0  0  0  0  0  0
   -0.7733    1.1329   29.0946 C   0  0  0  0  0  0  0  0  0  0  0  0
   -0.5899    0.2664   30.1731 C   0  0  0  0  0  0  0  0  0  0  0  0
   -0.9311   -1.0739   30.0221 C   0  0  0  0  0  0  0  0  0  0  0  0
   -0.9387   -2.1741   31.3914 S   0  0  0  0  0  0  0  0  0  0  0  0
   -1.1605   -1.3645   32.5714 O   0  0  0  0  0  0  0  0  0  0  0  0
   -1.8134   -3.2860   31.0904 O   0  0  0  0  0  0  0  0  0  0  0  0
    0.6213   -2.7107   31.4532 N   0  0  0  0  0  0  0  0  0  0  0  0
    1.2582   -3.4923   30.4300 C   0  0  2  0  0  0  0  0  0  0  0  0
    0.7139   -4.9134   30.1958 C   0  0  0  0  0  0  0  0  0  0  0  0
    0.2520   -5.8132   31.3090 C   0  0  0  0  0  0  0  0  0  0  0  0
    0.2533   -5.4013   32.5865 N   0  0  0  0  0  0  0  0  0  0  0  0
   -0.3935   -6.1746   33.4855 C   0  0  0  0  0  0  0  0  0  0  0  0
   -0.9914   -7.3628   33.1655 C   0  0  0  0  0  0  0  0  0  0  0  0
   -0.8534   -7.7186   31.8557 C   0  0  0  0  0  0  0  0  0  0  0  0
   -1.3162   -8.9151   31.4191 O   0  0  0  0  0  0  0  0  0  0  0  0
   -0.2317   -7.0068   30.9118 N   0  0  0  0  0  0  0  0  0  0  0  0
    2.7227   -3.4156   30.5912 N   0  0  0  0  0  0  0  0  0  0  0  0
    3.2225   -3.8693   31.9074 C   0  0  0  0  0  0  0  0  0  0  0  0
    3.2597   -2.8030   33.0604 C   0  0  1  0  0  0  0  0  0  0  0  0
    2.9031   -1.4517   32.5675 N   0  0  0  0  0  0  0  0  0  0  0  0
    2.4148   -3.1983   34.2308 C   0  0  0  0  0  0  0  0  0  0  0  0
    1.3714   -2.3863   34.5966 O   0  0  0  0  0  0  0  0  0  0  0  0
    0.8009   -3.0209   35.6533 C   0  0  0  0  0  0  0  0  0  0  0  0
    1.4049   -4.1247   36.0395 N   0  0  0  0  0  0  0  0  0  0  0  0
    2.4328   -4.2611   35.1154 C   0  0  0  0  0  0  0  0  0  0  0  0
    3.3613   -5.3896   35.1051 C   0  0  0  0  0  0  0  0  0  0  0  0
    4.1401   -5.5246   34.2447 O   0  0  0  0  0  0  0  0  0  0  0  0
    3.0628   -6.2777   36.3348 N   0  0  0  0  0  0  0  0  0  0  0  0
    3.6893   -7.4056   36.7894 C   0  0  0  0  0  0  0  0  0  0  0  0
    4.6507   -7.9976   36.0640 C   0  0  0  0  0  0  0  0  0  0  0  0
    5.3507   -9.0858   36.5082 N   0  0  0  0  0  0  0  0  0  0  0  0
    5.1869   -9.6616   37.7431 C   0  0  0  0  0  0  0  0  0  0  0  0
    5.8730  -10.6105   38.1043 O   0  0  0  0  0  0  0  0  0  0  0  0
    4.1192   -9.0790   38.5947 C   0  0  0  0  0  0  0  0  0  0  0  0
    3.8645   -9.6552   39.8469 C   0  0  0  0  0  0  0  0  0  0  0  0
    2.8333   -9.1594   40.6383 C   0  0  0  0  0  0  0  0  0  0  0  0
    2.0599   -8.0966   40.1778 C   0  0  0  0  0  0  0  0  0  0  0  0
    2.3187   -7.5159   38.9297 C   0  0  0  0  0  0  0  0  0  0  0  0
    3.3573   -7.9923   38.1135 C   0  0  0  0  0  0  0  0  0  0  0  0
   -1.4007   -1.4982   28.8017 C   0  0  0  0  0  0  0  0  0  0  0  0
   -1.6136   -0.6587   27.7657 N   0  0  0  0  0  0  0  0  0  0  0  0
  1  2  1  0
  2  3  2  0
  3  4  1  0
  4  5  2  0
  5  6  1  0
  6  7  2  0
  6  8  2  0
  6  9  1  0
  9 10  1  0
 10 11  1  1
 11 12  1  0
 12 13  2  0
 13 14  1  0
 14 15  2  0
 15 16  1  0
 16 17  1  0
 16 18  2  0
 10 19  1  0
 19 20  1  0
 20 21  1  0
 21 22  1  6
 21 23  1  0
 23 24  1  0
 24 25  1  0
 25 26  2  0
 26 27  1  0
 27 28  1  0
 28 29  2  0
 28 30  1  0
 30 31  1  0
 31 32  2  0
 32 33  1  0
 33 34  1  0
 34 35  2  0
 34 36  1  0
 36 37  2  0
 37 38  1  0
 38 39  2  0
 39 40  1  0
 40 41  2  0
  5 42  1  0
 42 43  2  0
 43  2  1  0
 18 12  1  0
 27 23  2  0
 41 31  1  0
 41 36  1  0
M  END
>  <tags>  (150) 
{'openbind_d68ev3c_c1_fragmenstein', 'fragmenstein_placed'}

>  <fragmenstein_mode>  (150) 
expansion

>  <smiles>  (150) 
C226-P149

>  <alias>  (150) 
Nc1ccc(S(=O)(=O)N[C@H](Cc2nccc(O)n2)NC[C@@H](N)c2ocnc2C(=O)Nc2c[nH]c(=O)c3ccccc23)cn1

>  <fragmenstein_runtime>  (150) 
14.272972

>  <inchikey>  (150) 
ZIFVEAFJKKVTCL-UHFFFAOYSA-N

>  <HIPPO Compound ID>  (150) 
226

>  <scratch_subdir>  (150) 
/opt/xchem-fragalysis-2/maxwin/BulkDock/SCRATCH/494511/C226-P149

>  <fragmenstein_outcome>  (150) 
acceptable

>  <fragmenstein_error>  (150) 


>  <ref_pdb>  (150) 
56

>  <HIPPO Pose ID>  (150) 
2115

>  <Energy>  (150) 
-103.545128

$$$$
Nc1ccc(S(=O)(=O)NCCc2nc(O)c3cc(S(=O)(=O)F)ccn23)cn1
     RDKit          3D

 27 29  0  0  0  0  0  0  0  0999 V2000
   -1.4231    1.6523   26.8846 N   0  0  0  0  0  0  0  0  0  0  0  0
   -1.0802    0.7560   27.8877 C   0  0  0  0  0  0  0  0  0  0  0  0
   -0.4720    1.1698   29.0568 C   0  0  0  0  0  0  0  0  0  0  0  0
   -0.3051    0.2495   30.0932 C   0  0  0  0  0  0  0  0  0  0  0  0
   -0.7048   -1.0667   29.8909 C   0  0  0  0  0  0  0  0  0  0  0  0
   -0.6643   -2.2526   31.1822 S   0  0  0  0  0  0  0  0  0  0  0  0
   -0.3131   -1.5615   32.4033 O   0  0  0  0  0  0  0  0  0  0  0  0
   -1.8340   -3.0996   31.1126 O   0  0  0  0  0  0  0  0  0  0  0  0
    0.6859   -3.1698   30.7691 N   0  0  0  0  0  0  0  0  0  0  0  0
    0.6123   -4.0388   29.5796 C   0  0  0  0  0  0  0  0  0  0  0  0
    1.2701   -5.3852   29.8671 C   0  0  0  0  0  0  0  0  0  0  0  0
    0.4653   -6.1866   30.8360 C   0  0  0  0  0  0  0  0  0  0  0  0
   -0.4598   -7.0621   30.5056 N   0  0  0  0  0  0  0  0  0  0  0  0
   -0.9630   -7.5244   31.6836 C   0  0  0  0  0  0  0  0  0  0  0  0
   -1.9402   -8.4310   31.7259 O   0  0  0  0  0  0  0  0  0  0  0  0
   -0.3438   -6.9525   32.7725 C   0  0  0  0  0  0  0  0  0  0  0  0
   -0.3920   -7.0332   34.2026 C   0  0  0  0  0  0  0  0  0  0  0  0
    0.4767   -6.2880   34.9272 C   0  0  0  0  0  0  0  0  0  0  0  0
    0.5533   -6.4453   36.6613 S   0  0  0  0  0  0  0  0  0  0  0  0
   -0.3321   -7.4976   37.1038 O   0  0  0  0  0  0  0  0  0  0  0  0
    1.9499   -6.4204   37.0545 O   0  0  0  0  0  0  0  0  0  0  0  0
   -0.0660   -5.0951   37.2328 F   0  0  0  0  0  0  0  0  0  0  0  0
    1.4335   -5.3920   34.2967 C   0  0  0  0  0  0  0  0  0  0  0  0
    1.4736   -5.3264   32.9628 C   0  0  0  0  0  0  0  0  0  0  0  0
    0.5941   -6.0898   32.2064 N   0  0  0  0  0  0  0  0  0  0  0  0
   -1.1966   -1.4166   28.6559 C   0  0  0  0  0  0  0  0  0  0  0  0
   -1.3982   -0.5222   27.6686 N   0  0  0  0  0  0  0  0  0  0  0  0
  1  2  1  0
  2  3  2  0
  3  4  1  0
  4  5  2  0
  5  6  1  0
  6  7  2  0
  6  8  2  0
  6  9  1  0
  9 10  1  0
 10 11  1  0
 11 12  1  0
 12 13  2  0
 13 14  1  0
 14 15  1  0
 14 16  2  0
 16 17  1  0
 17 18  2  0
 18 19  1  0
 19 20  2  0
 19 21  2  0
 19 22  1  0
 18 23  1  0
 23 24  2  0
 24 25  1  0
  5 26  1  0
 26 27  2  0
 27  2  1  0
 25 12  1  0
 25 16  1  0
M  END
>  <tags>  (151) 
{'openbind_d68ev3c_c1_fragmenstein', 'fragmenstein_placed'}

>  <fragmenstein_mode>  (151) 
expansion

>  <smiles>  (151) 
C239-P168

>  <alias>  (151) 
Nc1ccc(S(=O)(=O)NCCc2nc(O)c3cc(S(=O)(=O)F)ccn23)cn1

>  <fragmenstein_runtime>  (151) 
5.049435

>  <inchikey>  (151) 
CXDLYSMXLHPFPT-UHFFFAOYSA-N

>  <HIPPO Compound ID>  (151) 
239

>  <scratch_subdir>  (151) 
/opt/xchem-fragalysis-2/maxwin/BulkDock/SCRATCH/494511/C239-P168

>  <fragmenstein_outcome>  (151) 
acceptable

>  <fragmenstein_error>  (151) 


>  <ref_pdb>  (151) 
56

>  <HIPPO Pose ID>  (151) 
2123

>  <Energy>  (151) 
-59.200865

$$$$
CC(C)[C@@H]1N[C@]2(CC[C@H](S(=O)(=O)NCCc3nccc(O)n3)CN2)NO1
     RDKit          3D

 26 28  0  0  0  0  0  0  0  0999 V2000
   -0.8190    4.5413   27.8506 C   0  0  0  0  0  0  0  0  0  0  0  0
   -1.1975    3.5898   26.7294 C   0  0  0  0  0  0  0  0  0  0  0  0
    0.0802    3.0667   26.0797 C   0  0  0  0  0  0  0  0  0  0  0  0
   -2.2339    2.5172   27.1417 C   0  0  2  0  0  0  0  0  0  0  0  0
   -1.9413    1.7712   28.3587 N   0  0  0  0  0  0  0  0  0  0  0  0
   -1.4060    0.5129   27.9375 C   0  0  1  0  0  0  0  0  0  0  0  0
   -0.0243    0.3068   28.5854 C   0  0  0  0  0  0  0  0  0  0  0  0
   -0.1296   -0.0343   30.0854 C   0  0  0  0  0  0  0  0  0  0  0  0
   -1.2788   -1.0143   30.3505 C   0  0  2  0  0  0  0  0  0  0  0  0
   -0.9323   -2.2762   31.5586 S   0  0  0  0  0  0  0  0  0  0  0  0
   -1.9373   -3.3179   31.4872 O   0  0  0  0  0  0  0  0  0  0  0  0
   -0.6667   -1.6020   32.8118 O   0  0  0  0  0  0  0  0  0  0  0  0
    0.5374   -2.9286   31.0878 N   0  0  0  0  0  0  0  0  0  0  0  0
    0.5899   -3.8836   29.9574 C   0  0  0  0  0  0  0  0  0  0  0  0
    1.4706   -5.0823   30.3043 C   0  0  0  0  0  0  0  0  0  0  0  0
    0.7509   -5.9769   31.2710 C   0  0  0  0  0  0  0  0  0  0  0  0
    0.6829   -5.5664   32.5537 N   0  0  0  0  0  0  0  0  0  0  0  0
   -0.1278   -6.2739   33.3667 C   0  0  0  0  0  0  0  0  0  0  0  0
   -0.8244   -7.3797   32.9546 C   0  0  0  0  0  0  0  0  0  0  0  0
   -0.6217   -7.7277   31.6489 C   0  0  0  0  0  0  0  0  0  0  0  0
   -1.1887   -8.8434   31.1288 O   0  0  0  0  0  0  0  0  0  0  0  0
    0.1440   -7.0673   30.7764 N   0  0  0  0  0  0  0  0  0  0  0  0
   -1.7942   -1.6001   29.0531 C   0  0  0  0  0  0  0  0  0  0  0  0
   -2.3594   -0.4969   28.2842 N   0  0  0  0  0  0  0  0  0  0  0  0
   -1.4614    0.4542   26.5139 N   0  0  0  0  0  0  0  0  0  0  0  0
   -2.3272    1.5574   26.0963 O   0  0  0  0  0  0  0  0  0  0  0  0
  1  2  1  0
  2  3  1  0
  4  2  1  6
  4  5  1  0
  5  6  1  0
  6  7  1  1
  7  8  1  0
  8  9  1  0
  9 10  1  1
 10 11  2  0
 10 12  2  0
 10 13  1  0
 13 14  1  0
 14 15  1  0
 15 16  1  0
 16 17  2  0
 17 18  1  0
 18 19  2  0
 19 20  1  0
 20 21  1  0
 20 22  2  0
  9 23  1  0
 23 24  1  0
  6 25  1  0
 25 26  1  0
 26  4  1  0
 24  6  1  0
 22 16  1  0
M  END
>  <tags>  (152) 
{'openbind_d68ev3c_c1_fragmenstein', 'fragmenstein_placed'}

>  <fragmenstein_mode>  (152) 
expansion

>  <smiles>  (152) 
C207-P53

>  <alias>  (152) 
CC(C)[C@@H]1N[C@]2(CC[C@H](S(=O)(=O)NCCc3nccc(O)n3)CN2)NO1

>  <fragmenstein_runtime>  (152) 
7.013192

>  <inchikey>  (152) 
ULHMPWPKRSVYDD-UHFFFAOYSA-N

>  <HIPPO Compound ID>  (152) 
207

>  <scratch_subdir>  (152) 
/opt/xchem-fragalysis-2/maxwin/BulkDock/SCRATCH/494511/C207-P53

>  <fragmenstein_outcome>  (152) 
acceptable

>  <fragmenstein_error>  (152) 


>  <ref_pdb>  (152) 
56

>  <HIPPO Pose ID>  (152) 
2126

>  <Energy>  (152) 
-219.32397

$$$$
O=S(=O)(NCCc1nc(CCc2ccncc2)cn2ncnc12)N1CCOCC1
     RDKit          3D

 29 32  0  0  0  0  0  0  0  0999 V2000
   -1.6974   -1.7508   33.3087 O   0  0  0  0  0  0  0  0  0  0  0  0
   -1.3482   -2.5180   32.1400 S   0  0  0  0  0  0  0  0  0  0  0  0
   -2.0219   -3.7483   31.7963 O   0  0  0  0  0  0  0  0  0  0  0  0
    0.2682   -2.8642   32.3248 N   0  0  0  0  0  0  0  0  0  0  0  0
    0.9216   -3.7082   31.3314 C   0  0  0  0  0  0  0  0  0  0  0  0
    1.6821   -4.8134   32.0158 C   0  0  0  0  0  0  0  0  0  0  0  0
    0.7479   -5.7904   32.6705 C   0  0  0  0  0  0  0  0  0  0  0  0
    0.6131   -5.8460   33.9695 N   0  0  0  0  0  0  0  0  0  0  0  0
   -0.2941   -6.7694   34.4929 C   0  0  0  0  0  0  0  0  0  0  0  0
   -0.2284   -7.0257   35.9912 C   0  0  0  0  0  0  0  0  0  0  0  0
   -0.4294   -5.8233   36.9334 C   0  0  0  0  0  0  0  0  0  0  0  0
   -0.4671   -6.1594   38.4193 C   0  0  0  0  0  0  0  0  0  0  0  0
    0.2093   -7.2499   38.9779 C   0  0  0  0  0  0  0  0  0  0  0  0
    0.0818   -7.5046   40.3395 C   0  0  0  0  0  0  0  0  0  0  0  0
   -0.6511   -6.7513   41.1842 N   0  0  0  0  0  0  0  0  0  0  0  0
   -1.2746   -5.6849   40.6408 C   0  0  0  0  0  0  0  0  0  0  0  0
   -1.1999   -5.3459   39.2940 C   0  0  0  0  0  0  0  0  0  0  0  0
   -1.0750   -7.5456   33.7068 C   0  0  0  0  0  0  0  0  0  0  0  0
   -0.8925   -7.5203   32.3371 N   0  0  0  0  0  0  0  0  0  0  0  0
   -1.3406   -8.3133   31.3358 N   0  0  0  0  0  0  0  0  0  0  0  0
   -0.5399   -7.9512   30.3266 C   0  0  0  0  0  0  0  0  0  0  0  0
    0.2363   -6.8665   30.5324 N   0  0  0  0  0  0  0  0  0  0  0  0
    0.0283   -6.6627   31.8072 C   0  0  0  0  0  0  0  0  0  0  0  0
   -1.3076   -1.4930   30.8298 N   0  0  0  0  0  0  0  0  0  0  0  0
   -0.5501   -0.2239   30.9887 C   0  0  0  0  0  0  0  0  0  0  0  0
   -0.5530    0.5607   29.6767 C   0  0  0  0  0  0  0  0  0  0  0  0
    0.0922   -0.1344   28.6103 O   0  0  0  0  0  0  0  0  0  0  0  0
   -0.0831   -1.5527   28.6619 C   0  0  0  0  0  0  0  0  0  0  0  0
   -1.3027   -2.0329   29.4471 C   0  0  0  0  0  0  0  0  0  0  0  0
  1  2  2  0
  2  3  2  0
  2  4  1  0
  4  5  1  0
  5  6  1  0
  6  7  1  0
  7  8  2  0
  8  9  1  0
  9 10  1  0
 10 11  1  0
 11 12  1  0
 12 13  2  0
 13 14  1  0
 14 15  2  0
 15 16  1  0
 16 17  2  0
  9 18  2  0
 18 19  1  0
 19 20  1  0
 20 21  2  0
 21 22  1  0
 22 23  2  0
  2 24  1  0
 24 25  1  0
 25 26  1  0
 26 27  1  0
 27 28  1  0
 28 29  1  0
 23  7  1  0
 29 24  1  0
 17 12  1  0
 23 19  1  0
M  END
>  <tags>  (153) 
{'openbind_d68ev3c_c1_fragmenstein', 'fragmenstein_placed'}

>  <fragmenstein_mode>  (153) 
expansion

>  <smiles>  (153) 
C346-P150

>  <alias>  (153) 
O=S(=O)(NCCc1nc(CCc2ccncc2)cn2ncnc12)N1CCOCC1

>  <fragmenstein_runtime>  (153) 
7.818263

>  <inchikey>  (153) 
SSJUKEVLNSCPSU-UHFFFAOYSA-N

>  <HIPPO Compound ID>  (153) 
346

>  <scratch_subdir>  (153) 
/opt/xchem-fragalysis-2/maxwin/BulkDock/SCRATCH/494511/C346-P150

>  <fragmenstein_outcome>  (153) 
acceptable

>  <fragmenstein_error>  (153) 


>  <ref_pdb>  (153) 
56

>  <HIPPO Pose ID>  (153) 
2198

>  <Energy>  (153) 
-88.674014

$$$$
